24

C                    -0.18680934          -0.17620974           0.76051631         
C                     0.25231759           0.70695757          -0.43921584         
C                    -1.53909436          -0.88470503           0.53842480         
C                     1.79428627           0.67951937          -0.40434246         
C                    -2.72836283           0.08544563           0.61908759         
C                     2.15922875          -0.73669339          -0.00690729         
O                     0.81117689          -1.14968210           0.96231112         
O                    -0.18565472           2.02919014          -0.33209671         
O                    -1.61334959          -1.49345835          -0.73052898         
O                     2.30477278           1.58216160           0.53074246         
O                    -2.74199677           0.98826362          -0.45787527         
O                     1.93383066          -1.72434688          -0.83789477         
H                     0.98185582          -1.90011316           0.02308179         
H                    -1.15808286           2.02221343          -0.38908962         
H                    -0.85505745          -2.07479126          -0.87271332         
H                     1.74772786           2.37294479           0.48571349         
H                    -2.74417085           0.45836488          -1.26689347         
H                    -0.24301949           0.45096967           1.65980321         
H                    -0.08581827           0.24404251          -1.37756328         
H                    -1.64887383          -1.63707542           1.33515368         
H                     2.19483644           0.87924610          -1.40958602         
H                    -3.65274467          -0.50432227           0.62880156         
H                    -2.67428580           0.67930941           1.53260219         
H                     3.02182528          -0.79443933           0.66513047         
