48

Si                    3.19404441           0.11622537          -0.17317860         
C                     3.62848013          -1.38593394          -1.25397150         
H                     3.11188936          -2.26396084          -0.87853458         
H                     4.69291208          -1.59627710          -1.25164337         
H                     3.32348226          -1.23814047          -2.28727402         
C                     3.91264081           1.70519450          -0.95915016         
H                     4.99722603           1.68761219          -0.95648420         
H                     3.60101360           2.59223532          -0.41436374         
H                     3.59297330           1.82510741          -1.99114786         
C                     3.73256760          -0.07241347           1.63440615         
O                     1.56277002           0.28934557          -0.02910835         
H                     4.81198462          -0.14079340           1.71596735         
H                     3.30603132          -0.97561778           2.05845123         
H                     3.40603217           0.76592056           2.24217200         
C                     0.53456352           0.09703923          -0.88781744         
C                     0.12609747           1.18267810          -1.67474719         
H                    -0.32144986           0.99329816          -2.63321032         
H                     0.74562726           2.06253498          -1.62123707         
C                    -0.25191144          -1.03009528          -0.73331785         
C                     0.03732768          -1.95568915           0.38770749         
O                    -0.96738632          -2.11299125           1.27627464         
C                    -1.66734178          -1.08845821          -1.28262055         
C                    -2.03767616           0.93017483           0.25094216         
C                    -1.78219734           1.82113717          -0.81423193         
C                    -1.94362094           1.38381565           1.68843493         
O                     1.08548894          -2.51799547           0.57175837         
C                    -1.62467461           3.29208210          -0.56066076         
C                    -1.99792748           2.89901928           1.84927641         
H                    -2.74234975           0.91962626           2.27170480         
H                    -0.99307255           1.01610930           2.08952923         
C                    -1.07455061           3.55897196           0.83352202         
H                    -2.61099965           3.76333616          -0.65293531         
H                    -0.98883642           3.74099650          -1.32553089         
H                    -1.70488390           3.16438633           2.86652881         
H                    -3.01921729           3.25407825           1.69143454         
H                    -1.01192919           4.63367834           1.01300210         
H                    -0.07251325           3.13514163           0.92109428         
C                    -2.28772539          -2.48996107          -1.29345471         
C                    -2.11364914          -0.41261546          -0.01691838         
H                    -1.78690434          -0.55530590          -2.21893406         
C                    -2.24910776          -1.57640629           0.92954022         
C                    -2.97591369          -2.62143327           0.07442388         
H                    -4.03287742          -2.36328553           0.00864107         
H                    -2.87930138          -3.61717041           0.50265304         
H                    -1.51616197          -3.25002522          -1.41971126         
H                    -3.00181323          -2.59502587          -2.10907697         
H                    -2.74647284          -1.35770972           1.87542450         
H                    -2.26464320           1.58678676          -1.75282838         
