47

C                    -4.25439918           1.45503209          -0.13119785         
C                    -3.06316705           2.35735496          -0.45249636         
C                    -1.76737697           1.88488667           0.20068889         
H                    -3.28397149           3.36835788          -0.10151527         
H                    -2.92667043           2.40551910          -1.53482465         
C                    -1.20762199           0.63768927          -0.42284989         
H                    -1.93000536           1.75495839           1.27310667         
H                    -1.01164941           2.67087061           0.08556122         
C                    -5.53869401           2.04825257          -0.70627826         
H                    -5.46862203           2.12596144          -1.78911989         
H                    -5.71653080           3.04266561          -0.30316421         
H                    -6.39428637           1.42232019          -0.46238127         
C                    -4.03490126           0.04444823          -0.67982923         
H                    -4.35986448           1.39236441           0.95876398         
C                    -2.86418722          -0.66161665          -0.06339759         
H                    -4.93383315          -0.55034255          -0.47896704         
H                    -3.91257699           0.08814019          -1.76429414         
C                    -2.38752268          -1.83313881          -0.62471839         
C                    -1.28009525          -2.51123445          -0.13006408         
C                    -0.01762868           0.06254190           0.04532369         
C                     0.75787822          -0.64781020          -0.96320256         
C                     0.62939957           0.59449134           1.29175217         
H                    -0.11064858           0.76448700           2.07075346         
H                     1.09890421           1.55685257           1.07776868         
H                     1.38903311          -0.07732518           1.68056582         
O                     0.26854278          -1.05782681          -1.99887444         
C                     2.25701287          -0.84184277          -0.70126937         
C                     2.98051789           0.45750779          -0.53634270         
H                     2.66710387          -1.33813798          -1.58599001         
H                     2.42605417          -1.47648504           0.16972788         
S                     4.21384987           0.36364357           0.75023836         
C                     4.93554641           2.02082767           0.64851103         
H                     4.40250680           2.54382596          -0.14334026         
H                     5.99049382           1.92990375           0.41107512         
H                     4.80183493           2.52036053           1.60263302         
O                     2.81783856           1.46488068          -1.16555684         
C                    -0.54451379          -2.04995241           0.94029482         
C                     0.64571416          -2.73721612           1.37375458         
C                     1.24333099          -2.54062465           2.54935339         
H                    -1.35903983           0.55187130          -1.49078078         
H                     1.05436040          -3.46198462           0.67982682         
H                     0.85409383          -1.84484502           3.27428968         
H                     2.12955430          -3.08053879           2.83518832         
H                    -0.88954491          -3.33744496          -0.70708304         
H                    -1.00365677          -1.40510146           1.67171063         
H                    -2.75859182          -0.51850571           1.00291745         
H                    -2.77961125          -2.13944658          -1.58457222         
