12

C                    -1.14623059           0.87246900          -0.37405555         
C                     0.12763907           1.21718101           0.42477446         
C                     1.01014171           0.02690155           0.25053048         
O                    -1.52107849          -0.41759398           0.01912144         
O                    -0.36328223          -1.20792087          -0.02549050         
O                     1.96850806          -0.20610332          -0.38607881         
H                     0.23747474          -1.27496364           1.13556179         
H                    -1.98985671           1.51650520          -0.12671239         
H                    -0.93599910           0.91542527          -1.45044145         
H                     0.93605754          -0.78590180           1.60606123         
H                    -0.12371386           1.39786526           1.46771812         
H                     0.64097814           2.08352620           0.00758246         
