13

C        1.957742       0.047802       0.111405
C        0.577973      -0.048290      -0.427252
C       -0.605028      -0.286334       0.439315
C       -1.897383       0.279322      -0.153122
H        2.455416      -0.932896       0.135546
H        1.956298       0.431382       1.133773
H        2.580312       0.697343      -0.507803
H        0.446899      -0.120734      -1.500619
H       -0.429560       0.146634       1.429292
H       -0.748331      -1.367467       0.599392
H       -2.745874       0.071603       0.499664
H       -1.817421       1.359174      -0.282243
H       -2.097770      -0.166715      -1.128360
13

C        1.936921      -0.180582      -0.004870
C        0.544288       0.150838      -0.474350
C       -0.570132      -0.313488       0.073128
C       -1.950412       0.034942      -0.424117
H        2.124042      -1.254594      -0.063418
H        2.085237       0.132201       1.030608
H        2.685058       0.322863      -0.616354
H        0.457986       0.821759      -1.326137
H       -0.258576       1.007610       2.890446
H       -0.497362      -0.986650       0.923272
H       -2.718224      -0.460840       0.169421
H       -2.125888       1.110763      -0.365589
H       -2.079637      -0.274033      -1.463028
13
Number of gradient calls is 1
C                    -1.96506100           0.03930400          -0.07264100         
C                    -0.55465800          -0.40497800           0.11750700         
C                     0.52539000           0.33893700          -0.15995800         
C                     1.93958000          -0.14439600          -0.04458600         
H                    -2.51786300          -0.66496300          -0.69979000         
H                    -2.01425700           1.02525900          -0.53623100         
H                    -2.48841200           0.08785900           0.88671400         
H                    -0.40772000          -1.38594800           0.56305400         
H                     0.44804400           1.48159700           1.48186100         
H                     0.38052500           1.28881300          -0.66830500         
H                     2.57796800           0.60264100           0.42847100         
H                     1.99746500          -1.06383400           0.53909500         
H                     2.35275000          -0.34463500          -1.03680400         
