16

C        2.177081      -0.040577       0.152918
C        0.823441      -0.356001      -0.395492
C       -0.452454      -0.015120       0.311628
C       -0.949360       1.400591      -0.093045
C       -1.551528      -1.057748       0.019481
H        2.895655      -0.850562      -0.057048
H        2.140167       0.118613       1.240529
H        2.607171       0.875169      -0.300244
H        0.754486      -0.688030      -1.434749
H       -0.262501       0.002039       1.399233
H       -1.875477       1.655423       0.444803
H       -1.153406       1.436691      -1.172908
H       -2.479463      -0.808740       0.554631
H       -1.229778      -2.061438       0.330239
H       -0.190752       2.160590       0.140371
H       -1.773902      -1.087068      -1.057575
16

C        2.069691       0.180479       0.006327
C        0.792773      -0.615481      -0.180404
C       -0.457681      -0.114094      -0.235052
C       -0.766707       1.359410      -0.112813
C       -1.651001      -1.021080      -0.434006
H        2.940764      -0.488426       0.011954
H        2.065161       0.731100       0.959756
H        2.212624       0.908235      -0.808141
H        0.913635      -1.698230      -0.281544
H       -0.138503      -0.040063       2.863038
H       -1.440885       1.540553       0.740664
H       -1.282256       1.719050      -1.019551
H       -2.355223      -0.929386       0.410262
H       -1.353524      -2.075400      -0.517170
H        0.130598       1.973733       0.030588
H       -2.200166      -0.746499      -1.350911
16
Number of gradient calls is 5
C                     2.10418200          -0.08130000          -0.04228000         
C                     0.73941600          -0.68205900          -0.04771400         
C                    -0.44357400          -0.03940300           0.04108900         
C                    -0.59620300           1.45571900          -0.05873000         
C                    -1.73470900          -0.80508200          -0.08515700         
H                     2.62293400          -0.32126500           0.89140000         
H                     2.09536200           1.00154800          -0.15236600         
H                     2.70750900          -0.49679000          -0.85310700         
H                     0.71003500          -1.76816100          -0.05424800         
H                    -0.37437900          -0.04837300           1.98614500         
H                    -1.41775800           1.79808300           0.57165100         
H                    -0.83926800           1.73147700          -1.08966200         
H                    -2.46088900          -0.47811200           0.66079100         
H                    -1.58132600          -1.87782200           0.02938100         
H                     0.29994100           1.99665700           0.23667700         
H                    -2.17682500          -0.62449200          -1.06991400         
