22

C       -0.519751       1.619349       0.006955
C       -0.642929       0.128934       0.075970
C       -1.266398      -0.281219       1.433323
C       -1.579674      -0.370492      -1.052055
C        0.769944      -0.571502      -0.077042
C        1.431237      -0.270541      -1.434072
C        1.742481      -0.185408       1.051924
H       -0.578866       2.145354      -0.944223
H       -0.346778       2.209210       0.905378
H       -2.307855       0.064551       1.488451
H       -0.723652       0.161530       2.277780
H       -1.260683      -1.374737       1.549545
H       -2.604592      -0.017030      -0.873621
H       -1.596112      -1.469540      -1.086066
H       -1.264984       0.003580      -2.034262
H        0.585957      -1.658549      -0.016783
H        2.416427      -0.755074      -1.487498
H        1.577421       0.811723      -1.558844
H        0.833826      -0.640929      -2.276350
H        1.374646      -0.494466       2.038174
H        1.904650       0.901690       1.064597
H        2.715003      -0.672362       0.892854
22

C       -0.899452       1.810062       0.048164
C       -1.507806       0.617482       0.167536
C       -1.703467      -0.053410       1.505814
C       -2.022491      -0.144521      -1.029899
C        1.652960      -1.081602      -0.170131
C        1.871817      -0.497771      -1.529841
C        2.194970      -0.409544       1.051400
H       -0.754457       2.283916      -0.924438
H       -0.522922       2.349355       0.919345
H       -2.776128      -0.187157       1.724352
H       -1.259054       0.528666       2.324543
H       -1.237230      -1.051976       1.507837
H       -3.114682      -0.283596      -0.966416
H       -1.562592      -1.144940      -1.076519
H       -1.799388       0.374168      -1.972140
H        1.283014      -2.105770      -0.088830
H        2.881070      -0.739926      -1.921014
H        1.775318       0.599162      -1.508134
H        1.137277      -0.886582      -2.251708
H        1.665047      -0.743780       1.956533
H        2.085586       0.684142       0.981021
H        3.271819      -0.632168       1.196595
22
Number of gradient calls is 3
C                     0.88448900           0.00000000           1.52449000         
C                     1.00716100           0.00000000           0.16233400         
C                     1.43265100           1.26929500          -0.53799800         
C                     1.43265100          -1.26929500          -0.53799800         
C                    -1.11653700           0.00000000          -0.50274000         
C                    -1.71531600          -1.26772200           0.01239100         
C                    -1.71531600           1.26772200           0.01239100         
H                     0.78641100          -0.92471000           2.07959900         
H                     0.78641100           0.92471000           2.07959900         
H                     2.52473000           1.30956900          -0.58780300         
H                     1.09229600           2.15618000          -0.00381100         
H                     1.05918400           1.31677500          -1.56286200         
H                     2.52473000          -1.30956900          -0.58780300         
H                     1.05918400          -1.31677500          -1.56286200         
H                     1.09229600          -2.15618000          -0.00381100         
H                    -0.87150600           0.00000000          -1.56182200         
H                    -2.77832300          -1.33134900          -0.25194300         
H                    -1.65229600          -1.30806000           1.10348100         
H                    -1.22560000          -2.15270000          -0.39436300         
H                    -1.22560000           2.15270000          -0.39436300         
H                    -1.65229600           1.30806000           1.10348100         
H                    -2.77832300           1.33134900          -0.25194300         
