22

C        2.219488      -0.942243      -0.266208
C        1.469771      -0.112197       0.789383
C        0.233312       0.690708       0.295800
C        0.510458       1.398098      -1.059620
C       -1.052811      -0.094923       0.238049
C       -2.354547       0.639327       0.381388
C       -1.103610      -1.522254      -0.221871
H        2.686583      -0.295713      -1.020659
H        1.557712      -1.646658      -0.784283
H        3.018907      -1.522694       0.216013
H        2.184073       0.606277       1.222080
H        1.147748      -0.770442       1.611081
H        0.076906       1.497757       1.033936
H        1.440078       1.985162      -1.010577
H       -0.315318       2.079613      -1.305103
H        0.600603       0.665855      -1.872241
H       -2.881371       0.740555      -0.588097
H       -2.208545       1.650730       0.786031
H       -3.046353       0.097944       1.050157
H       -0.428362      -2.170094       0.359698
H       -0.808393      -1.629695      -1.283781
H       -2.122183      -1.923661      -0.125743
22

C        2.744442      -1.279138      -0.052471
C        2.289580      -0.635922       1.217223
C       -0.752064       1.401396      -0.414449
C        0.449391       1.447487      -1.320360
C       -1.506186       0.334842      -0.084041
C       -2.675261       0.472712       0.866660
C       -1.281552      -1.071305      -0.590173
H        3.131456      -0.529893      -0.758674
H        1.916040      -1.813651      -0.542700
H        3.552262      -2.013984       0.134028
H        2.741252       0.292191       1.564417
H        1.567236      -1.134770       1.862015
H       -1.012152       2.368952       0.028794
H        1.325409       1.823759      -0.767560
H        0.271153       2.137798      -2.161924
H        0.718131       0.469985      -1.737749
H       -3.621592       0.217706       0.360778
H       -2.768160       1.493814       1.262002
H       -2.563709      -0.211799       1.724235
H       -0.903280      -1.715391       0.221016
H       -0.569190      -1.124088      -1.422287
H       -2.229205      -1.509291      -0.943302
22
Number of gradient calls is 5
C                    -1.83456400          -1.07259900           0.81749100         
C                    -1.73976900          -0.62210200          -0.60070500         
C                     0.07292100           0.73027100          -0.72417800         
C                    -0.54462200           1.98307200          -0.15933400         
C                     1.06308200           0.02241000          -0.11032600         
C                     1.73361600          -1.11530100          -0.81460200         
C                     1.44947700           0.21086100           1.32339300         
H                    -1.89129300          -0.22578500           1.50604900         
H                    -0.96831800          -1.67465000           1.09903100         
H                    -2.72633800          -1.68658800           0.99310900         
H                    -2.48028400           0.08915400          -0.95095700         
H                    -1.45248400          -1.36584300          -1.33544400         
H                    -0.00170500           0.62350400          -1.80122800         
H                    -1.37806600           2.31539800          -0.77758100         
H                     0.18388700           2.79749300          -0.12019500         
H                    -0.92579000           1.83623700           0.85252100         
H                     2.82338200          -1.03916000          -0.74798300         
H                     1.45799600          -1.15916700          -1.86880200         
H                     1.46021600          -2.07354000          -0.35542700         
H                     1.24674700          -0.69479700           1.90683400         
H                     0.92651500           1.03889800           1.79891100         
H                     2.52468700           0.39917800           1.41074200         
