16

C       -2.614620      -0.098289       0.211732
C       -1.274640       0.007626      -0.441533
C       -0.006052       0.034867       0.349863
C        1.262316       0.016478      -0.519348
C        2.547071       0.051159       0.319957
H       -2.567484       0.210032       1.266688
H       -3.366045       0.523401      -0.301387
H       -1.219077      -0.023237      -1.530810
H        0.021777      -0.824872       1.050673
H        0.015080       0.934428       0.998931
H        1.242732       0.882636      -1.199439
H        1.254920      -0.889802      -1.145043
H        3.439043       0.037241      -0.321870
H        2.596956      -0.817665       0.992310
H       -3.003514      -1.135840       0.191768
H        2.584906       0.960584       0.937157
16

C       -3.066278      -0.334674       0.187746
C       -1.664430       0.205560       0.106520
C       -0.826404       0.346451       1.142961
C        2.210139      -0.052946      -1.194246
C        3.060136      -0.014799       0.034643
H       -3.351852      -0.569750       1.222777
H       -3.788553       0.397051      -0.209322
H       -1.318216       0.500479      -0.889928
H       -1.113815       0.063109       2.158245
H        0.179058       0.744606       1.000193
H        2.030541       0.853242      -1.772065
H        1.860011      -1.002799      -1.595946
H        4.136275      -0.094381      -0.216683
H        2.813192      -0.846428       0.711446
H       -3.164568      -1.253734      -0.413078
H        2.918073       0.927612       0.586347
16
Number of gradient calls is 4
C                     2.38050600          -0.55845000          -0.24075500         
C                     1.47929600           0.47970600           0.33951300         
C                     0.30065600           0.85408300          -0.20873700         
C                    -1.35133000          -0.55429200           0.45508100         
C                    -2.56665100          -0.05386400          -0.25050000         
H                     2.04304600          -0.86815600          -1.23145300         
H                     3.40696000          -0.19204600          -0.32945900         
H                     1.75979700           0.88513600           1.30696600         
H                     0.06567200           0.58254200          -1.23196400         
H                    -0.25323100           1.68915100           0.20077700         
H                    -1.28748700          -0.39616500           1.52496700         
H                    -0.91676200          -1.48626100           0.11310900         
H                    -3.45129500          -0.65705700          -0.01052000         
H                    -2.44353300          -0.08701600          -1.33540200         
H                     2.41998700          -1.44941000           0.39515300         
H                    -2.79801000           0.97618300           0.03021600         
