12

C       -1.752882      -0.508645      -0.012611
C       -0.969899       0.811525       0.016846
C        2.722440      -0.302102      -0.004090
H       -1.072980      -1.367852      -0.106286
H       -0.383435       0.939459      -0.903635
H       -1.650395       1.669969       0.108734
H       -0.274217       0.835863       0.867465
H        1.837811      -0.929041      -0.070547
H        3.694245      -0.750297       0.183645
H        2.634331       0.773737      -0.125838
H       -2.448959      -0.534499      -0.863053
H       -2.337953      -0.639708       0.908753
12

C       -1.846371      -0.479531       0.052515
C       -1.362085       0.900777       0.358985
C        2.317959      -0.141440      -0.282018
H       -1.004806      -1.185388      -0.020809
H        1.684349       0.080882      -1.149024
H       -1.940615       1.771591       0.052258
H       -0.511280       1.051530       1.022414
H        1.818939      -0.883452       0.353932
H        3.281051      -0.540957      -0.624015
H        2.485726       0.778122       0.292281
H       -2.396649      -0.503127      -0.900311
H       -2.528009      -0.850507       0.843193
12
Number of gradient calls is 48
C                    -1.46848200          -0.49077700           0.00000100         
C                    -0.59118600           0.73395000           0.00000700         
C                     1.92754700          -0.19018700           0.00000300         
H                    -1.28615800          -1.10751300           0.88226100         
H                     0.65525600           0.31813600           0.00028300         
H                    -0.66250600           1.34451900          -0.89887000         
H                    -0.66284600           1.34476000           0.89869300         
H                     1.99222500          -0.78385800          -0.90734300         
H                     2.57822300           0.67935300          -0.00238100         
H                     1.99411600          -0.78027200           0.90955900         
H                    -1.28567200          -1.10784900          -0.88192400         
H                    -2.52990900          -0.22519800          -0.00034500         
