19

C        2.053048       1.118130      -0.169944
C        0.995133       0.304465       0.500400
C       -0.000980      -0.512962      -0.264419
C        0.278234      -2.027118      -0.081731
C       -1.453790      -0.191010       0.170204
C       -1.840237       1.268750      -0.105454
H        2.636844       0.510482      -0.886582
H        2.751687       1.556722       0.554745
H        1.615413       1.944860      -0.762019
H        0.957498       0.261918       1.590795
H        0.095092      -0.276484      -1.338638
H        1.296876      -2.277346      -0.409469
H       -0.433722      -2.628864      -0.666754
H       -1.553980      -0.402212       1.247418
H       -2.145156      -0.864005      -0.362103
H       -1.165482       1.952183       0.429519
H       -2.869930       1.473966       0.220203
H        0.180188      -2.307005       0.977098
H       -1.770496       1.493559      -1.180012
19

C        2.075750       1.356206      -0.191068
C        1.425820       0.071303       0.248473
C        1.175161      -0.982646      -0.543965
C        0.502091      -2.250562      -0.091082
C       -2.407257       0.018613       0.445327
C       -2.140347       1.406374      -0.038857
H        2.432182       1.297500      -1.229348
H        2.937259       1.599396       0.451956
H        1.365492       2.197036      -0.120387
H        1.133485       0.019421       1.303277
H        1.457455      -0.936237      -1.601840
H        1.143282      -3.126427      -0.285857
H       -0.443271      -2.405545      -0.636261
H       -2.203356      -0.258856       1.478407
H       -2.886111      -0.712752      -0.204662
H       -1.334743       1.879422       0.541710
H       -3.040189       2.046800       0.052196
H        0.273179      -2.226380       0.983354
H       -1.839672       1.405245      -1.098185
19
Number of gradient calls is 4
C                     0.17133700           2.20056600          -0.10950500         
C                     0.82643300           0.94109100           0.35034000         
C                     0.84391600          -0.22093300          -0.35340300         
C                     1.74869700          -1.36506000           0.01717100         
C                    -1.10778000          -1.26235800           0.06750700         
C                    -2.20945000          -0.25931900           0.03433500         
H                    -0.25396600           2.08550600          -1.10787400         
H                     0.88606400           3.02882500          -0.14084100         
H                    -0.63414300           2.50966700           0.56426200         
H                     1.26802400           0.95201200           1.34374900         
H                     0.53941500          -0.17574300          -1.39596900         
H                     2.73139000          -1.23723300          -0.44470900         
H                     1.35270800          -2.32526700          -0.31458600         
H                    -0.84486500          -1.68079400           1.03271300         
H                    -1.05400100          -1.97045300          -0.75326600         
H                    -2.08081300           0.49372700           0.81370700         
H                    -3.18867900          -0.72724900           0.19385400         
H                     1.89323500          -1.41355900           1.09795100         
H                    -2.25329400           0.25664100          -0.92766100         
