16

C       -1.696473       0.615340       0.509603
C       -0.938234       0.172882      -0.696976
C        0.530239      -0.244173      -0.448098
C        1.371997       0.932799       0.074835
C        0.620279      -1.454153       0.498038
H       -1.237838       0.682045       1.493417
H       -2.743951       0.898706       0.415793
H       -0.951162       0.979564      -1.458866
H       -1.470278      -0.673341      -1.177082
H        0.946642      -0.547848      -1.423579
H        2.424936       0.636723       0.187838
H        1.008795       1.273742       1.054609
H        0.227371      -1.205716       1.494028
H        1.664391      -1.778422       0.615676
H        1.327656       1.785047      -0.618933
H        0.039597      -2.301934       0.106045
16

C       -2.274331       0.756436       0.401081
C       -2.061627       0.513882      -0.898267
C        1.380662      -0.496056      -0.381603
C        1.811485       0.842382       0.131232
C        0.968936      -1.586652       0.555938
H       -1.641137       1.443801       0.964989
H       -3.087598       0.272052       0.945170
H       -1.242493       0.992184      -1.437484
H       -2.690747      -0.179618      -1.459461
H        1.593310      -0.751753      -1.421758
H        2.880449       0.844306       0.427613
H        1.222604       1.137268       1.014412
H        0.400519      -1.183198       1.408581
H        1.846396      -2.129366       0.963849
H        1.685045       1.623076      -0.635735
H        0.332418      -2.327453       0.047933
16
Number of gradient calls is 3
C                    -1.96428600           0.00000000          -0.54882400         
C                    -1.39063900          -0.00000100           0.67704400         
C                     0.84675300           0.00000000           0.47421200         
C                     1.13923700          -1.27634200          -0.24048500         
C                     1.13923500           1.27634300          -0.24048400         
H                    -2.17292500          -0.92313700          -1.07488400         
H                    -2.17292600           0.92313800          -1.07488200         
H                    -1.32623300          -0.91819900           1.24828700         
H                    -1.32623400           0.91819600           1.24829000         
H                     1.03901800           0.00000000           1.54321900         
H                     2.21602600          -1.39060900          -0.42044300         
H                     0.64520000          -1.29455600          -1.21579700         
H                     0.64519800           1.29455600          -1.21579600         
H                     2.21602400           1.39061100          -0.42044200         
H                     0.80752700          -2.14748300           0.32683600         
H                     0.80752400           2.14748300           0.32683700         
