25

C       -2.076926       1.462703      -0.033109
C       -0.997929       0.686473       0.650068
C       -0.284193      -0.505765       0.068762
C       -0.317566      -1.658890       1.108647
C       -0.977608      -1.026819      -1.210897
C        1.220172      -0.154655      -0.270850
C        1.328418       1.051543      -1.221591
C        2.077761       0.119061       0.978060
H       -2.325864       2.369371       0.533938
H       -3.008295       0.873905      -0.140102
H       -1.789210       1.764223      -1.054013
H       -0.746148       0.960448       1.675253
H        0.321833      -2.494074       0.785226
H       -1.344639      -2.033966       1.217281
H        0.020201      -1.321808       2.096349
H       -0.439233      -1.902116      -1.600312
H       -1.015562      -0.271052      -2.003777
H       -2.008854      -1.333842      -0.989878
H        1.640419      -1.037755      -0.783405
H        0.896094       1.945502      -0.750631
H        0.811224       0.876679      -2.173418
H        2.382895       1.261012      -1.450307
H        3.097384       0.396989       0.675999
H        2.152995      -0.760935       1.628351
H        1.662094       0.951742       1.562263
25

C       -2.099631       1.604295      -0.074349
C       -1.520348       0.476403       0.754976
C       -1.259525      -0.772543       0.322595
C       -0.677459      -1.819135       1.244167
C       -1.503370      -1.235414      -1.093375
C        2.162276       0.038387      -0.516485
C        1.735400       1.194914      -1.363496
C        2.546707       0.234863       0.915602
H       -2.198920       2.514806       0.532307
H       -3.101340       1.355105      -0.458416
H       -1.456154       1.851074      -0.933187
H       -1.301099       0.716326       1.799763
H        0.266213      -2.215053       0.834405
H       -1.369866      -2.670382       1.361080
H       -0.466298      -1.413949       2.243504
H       -0.582941      -1.668319      -1.517744
H       -1.824984      -0.422553      -1.756771
H       -2.279083      -2.019426      -1.119016
H        2.391922      -0.912610      -1.001080
H        1.152846       1.921296      -0.775714
H        1.108942       0.861342      -2.205549
H        2.605779       1.732440      -1.792413
H        3.563320       0.668159       1.011730
H        2.542864      -0.719273       1.463642
H        1.844453       0.917146       1.421506
25
Number of gradient calls is 3
C                    -1.65851500          -1.64115000          -0.75625300         
C                    -1.12283200          -0.25726500          -0.91604100         
C                    -0.72259600           0.59997000           0.07743300         
C                    -0.50582200           2.05111000          -0.28932100         
C                    -1.16013000           0.40779300           1.51075800         
C                     1.42624700           0.05257200           0.36551100         
C                     1.45309400          -1.35646500           0.86280500         
C                     2.08998700           0.29542400          -0.95072800         
H                    -1.06493300          -2.36405100          -1.32521100         
H                    -2.68163300          -1.71235900          -1.14102300         
H                    -1.67601500          -1.97184000           0.28142500         
H                    -0.97123100           0.06939600          -1.94097900         
H                     0.23651700           2.52887200           0.35331500         
H                    -1.44196800           2.60526200          -0.17083200         
H                    -0.18523800           2.16042300          -1.32546000         
H                    -0.49096800           0.92691300           2.19926800         
H                    -1.20099900          -0.63811900           1.80843300         
H                    -2.16060100           0.82937300           1.64864500         
H                     1.60940200           0.81046100           1.12312800         
H                     1.01183700          -2.03702900           0.13000300         
H                     0.91911900          -1.47396800           1.80623700         
H                     2.48470400          -1.69298600           1.02948300         
H                     3.15304400           0.02554100          -0.91186300         
H                     2.03055800           1.34012000          -1.25720000         
H                     1.63180100          -0.31794700          -1.73235700         
