10

C       -1.274020       0.291858       0.000100
C       -0.057897      -0.555324      -0.000242
C        1.239007       0.248545       0.000124
H       -2.256706      -0.157314       0.001424
H       -1.199743       1.369874      -0.001631
H       -0.072183      -1.225087      -0.871815
H       -0.072324      -1.225694       0.870845
H        1.293629       0.885440       0.884182
H        2.106569      -0.411742      -0.000196
H        1.293641       0.886277      -0.883333
10

C       -1.252004       0.403585       0.220572
C       -0.111661      -0.245375       0.400924
C        1.246036       0.362748       0.165495
H       -2.208141      -0.069786       0.403715
H       -1.263601       1.434265      -0.119056
H       -0.056043      -2.072435      -2.126512
H       -0.145903      -1.274902       0.742881
H        1.395690       1.234712       0.804604
H        2.042676      -0.349136       0.379127
H        1.352862       0.683124      -0.872360
10
Number of gradient calls is 1
C                    -1.27109000          -0.28428700           0.01668100         
C                    -0.12618200           0.37607000          -0.20407500         
C                     1.23849500          -0.20696600           0.01175700         
H                    -2.22960000           0.14971200          -0.23621300         
H                    -1.27645900          -1.25595500           0.49742100         
H                    -0.15778100           1.55838100           1.37495000         
H                    -0.16594000           1.31339700          -0.75098400         
H                     1.67093900          -0.50260700          -0.94786300         
H                     1.91596200           0.51702000           0.46491400         
H                     1.19553700          -1.08885000           0.65159700         
