19

C        1.605964       0.274945       1.096499
C        0.727906      -0.081141      -0.056205
C        1.306067      -0.760105      -1.252511
C       -0.680890       0.438931      -0.104055
C       -1.593910      -0.414884      -0.992058
C       -1.306998       0.567253       1.290132
H        1.589839       1.353384       1.298941
H        2.638622      -0.016319       0.906942
H        1.286630      -0.217837       2.022114
H        2.374965      -0.930184      -1.127450
H        1.162281      -0.165437      -2.163748
H        0.834394      -1.731502      -1.440025
H       -0.663063       1.453248      -0.542506
H       -1.244860      -0.437571      -2.023735
H       -2.605931      -0.008144      -0.988261
H       -1.636750      -1.439513      -0.617756
H       -0.750206       1.261170       1.918728
H       -1.332443      -0.405324       1.785346
H       -2.330581       0.934950       1.208051
19

C        1.574591       0.170384       1.148752
C        0.658627      -0.249913       0.025169
C        1.276864      -0.855522      -1.211399
C       -0.664192      -0.088841       0.122029
C       -1.580540      -0.510414      -1.001085
C       -1.282782       0.515518       1.359329
H        1.480385       1.240586       1.353575
H        2.619379      -0.028368       0.911551
H        1.337483      -0.366565       2.071525
H        2.361813      -0.915885      -1.130227
H        1.044841      -0.260196      -2.099043
H        0.901668      -1.868303      -1.383293
H       -0.563190       2.736975      -1.112357
H       -1.343828       0.024824      -1.924808
H       -2.625084      -0.310358      -0.763880
H       -1.487524      -1.581061      -1.203998
H       -0.907619       1.527831       1.533250
H       -1.052269      -0.081446       2.246238
H       -2.367614       0.576753       1.277173
19
Number of gradient calls is 1
C                    -1.47467300           1.26216700          -0.05230900         
C                    -0.68868400          -0.02266400          -0.04043800         
C                    -1.53892200          -1.25634900          -0.01115100         
C                     0.66152300          -0.02105400           0.02633600         
C                     1.52240300          -1.25069100          -0.09117500         
C                     1.45115000           1.26283400          -0.04627100         
H                    -1.48916900           1.71572000           0.94452500         
H                    -2.51023200           1.07825700          -0.33990000         
H                    -1.06246100           1.99870000          -0.74254400         
H                    -2.13239600          -1.33095900          -0.92736300         
H                    -2.25057500          -1.19166300           0.81793200         
H                    -0.97709400          -2.17907400           0.10371100         
H                     0.51605700          -0.02877000           2.04609300         
H                     0.97383200          -2.18368000           0.00369400         
H                     2.30544700          -1.24236300           0.66896300         
H                     2.02128600          -1.25212400          -1.06573000         
H                     0.92196400           2.11083600           0.38304000         
H                     1.68912900           1.50206100          -1.08815500         
H                     2.39741700           1.15759900           0.48578100         
