16

C       -0.000153      -0.228032      -1.521764
C       -0.000148       0.007142      -0.042065
C       -1.264297       0.791509       0.375052
C        0.000451      -1.365868       0.694061
C        1.263610       0.792281       0.374701
H       -0.934353      -0.378951      -2.061464
H        0.934973      -0.378767      -2.059951
H       -2.173477       0.239783       0.096006
H       -1.291554       1.772150      -0.120539
H       -1.278814       0.952283       1.462611
H       -0.890106      -1.949731       0.423348
H        0.000532      -1.213313       1.784465
H        0.891376      -1.949070       0.423126
H        1.290260       1.773041      -0.120644
H        2.173180       0.241217       0.095696
H        1.278538       0.953216       1.462289
16

C        0.196542      -0.350147      -1.592352
C        0.669444      -0.458739      -0.338860
C       -2.240966       1.447340       0.741984
C        0.246297      -1.576162       0.583944
C        1.647111       0.536270       0.238465
H       -0.514290      -1.070609      -1.999975
H        0.504062       0.464163      -2.250327
H       -2.838051       0.636091       0.334564
H       -1.861283       2.221957       0.081434
H       -1.934806       1.425359       1.784941
H       -0.504243      -2.229798       0.119525
H       -0.189413      -1.168174       1.509529
H        1.112292      -2.197737       0.863633
H        1.866470       1.351225      -0.464406
H        2.598490       0.042228       0.493910
H        1.242244       0.985564       1.159002
16
Number of gradient calls is 3
C                     0.45879500          -0.00000100           1.48568700         
C                     0.36976000          -0.00000100           0.12780100         
C                    -1.88181900           0.00000300          -0.10714000         
C                     0.62363900           1.27442100          -0.64089600         
C                     0.62363400          -1.27442300          -0.64089600         
H                     0.44832400           0.92509200           2.04872900         
H                     0.44832000          -0.92509300           2.04872900         
H                    -2.16134200           0.91788900           0.39282900         
H                    -2.16134200          -0.91788700           0.39282100         
H                    -1.95998900           0.00000800          -1.18748900         
H                     0.31680100           2.15193800          -0.07167000         
H                     0.10075600           1.28260500          -1.59775700         
H                     1.69344100           1.36587600          -0.85205200         
H                     0.31679300          -2.15193900          -0.07167000         
H                     1.69343500          -1.36588200          -0.85205200         
H                     0.10075000          -1.28260500          -1.59775700         
