22

C       -2.582514       0.551131      -0.367039
C       -1.229778       0.174851       0.257743
C       -1.250091      -1.271051       0.775459
C       -0.079949       0.379727      -0.776637
C        1.290922       0.165630      -0.212756
C        1.863525       1.163917       0.748349
C        2.077866      -1.078419      -0.494950
H       -3.398537       0.427916       0.359915
H       -2.584155       1.596303      -0.709254
H       -1.037421       0.847817       1.110123
H       -0.289924      -1.535229       1.239438
H       -1.436050      -1.973171      -0.051564
H       -2.043840      -1.408076       1.524016
H       -0.170233       1.412856      -1.161328
H       -0.255969      -0.305035      -1.622210
H        2.938261       1.329143       0.559735
H        1.783253       0.820886       1.798850
H        1.346705       2.132156       0.680004
H        2.997309      -0.854573      -1.070648
H        1.492416      -1.807338      -1.071083
H        2.415733      -1.568130       0.436957
H       -2.798414      -0.092253      -1.233449
22

C       -2.909545       0.510500      -0.113000
C       -1.871210       0.089963       0.878563
C       -1.509437      -1.351191       1.052508
C        0.720561       0.630277      -1.517296
C        1.591546       0.260983      -0.563724
C        1.998527       1.190752       0.554336
C        2.213448      -1.115313      -0.533365
H       -3.935985       0.387616       0.289623
H       -2.790539       1.570100      -0.387922
H       -1.531370       0.811186       1.624016
H       -0.531425      -1.457872       1.546320
H       -1.453217      -1.866117       0.079900
H       -2.254103      -1.890089       1.673745
H        0.265247       1.621931      -1.522609
H        0.414889      -0.055208      -2.309918
H        3.087282       1.366006       0.542778
H        1.746258       0.752526       1.534134
H        1.495851       2.164539       0.480164
H        3.309002      -1.052604      -0.643999
H        1.826344      -1.757306      -1.336299
H        2.008689      -1.614271       0.428087
H       -2.841742      -0.087297      -1.036222
22
Number of gradient calls is 4
C                     2.66240600          -0.61977300          -0.38064800         
C                     1.52079500          -0.14770500           0.45868800         
C                     1.36164700           1.32185200           0.66343200         
C                    -0.26450200          -0.74689400          -0.77654600         
C                    -1.40420400          -0.22649600          -0.25457900         
C                    -2.15285800          -0.91822100           0.84149400         
C                    -1.91096000           1.12597600          -0.64909700         
H                     3.62640200          -0.44151300           0.11449300         
H                     2.59861200          -1.68977400          -0.58851900         
H                     1.29032300          -0.76438400           1.32231400         
H                     0.43740300           1.55383000           1.19456300         
H                     1.34426000           1.85358000          -0.29253100         
H                     2.19193400           1.73958700           1.24841500         
H                    -0.01092400          -1.78542000          -0.60017000         
H                     0.18981500          -0.28881400          -1.64779600         
H                    -3.21514800          -1.01481200           0.59576900         
H                    -2.10115600          -0.34349300           1.77391600         
H                    -1.75534300          -1.91435900           1.03781800         
H                    -2.94514300           1.06774400          -1.00445100         
H                    -1.30421900           1.57192800          -1.43746700         
H                    -1.91540800           1.81345300           0.20443700         
H                     2.69465000          -0.08999000          -1.33725700         
