6

C       -0.443099      -0.001826       0.010337
H        3.122195       0.141954      -0.364390
H        3.519805      -0.119083       0.208352
H        0.444373      -0.566254       0.245396
H       -1.346177      -0.512554      -0.281528
H       -0.429242       1.074109       0.072690
6

C        0.222196       0.052777      -0.149846
H        1.040775       0.176348      -0.855812
H        3.757218      -0.248194       0.640440
H        0.558499      -0.544105       0.694674
H       -0.608057      -0.449708      -0.641358
H       -0.102776       1.029228       0.202758
6
Number of gradient calls is 1
C                     0.26438500           0.00000600          -0.00000500         
H                    -1.11880800          -0.00010900           0.00005100         
H                    -2.02279200          -0.00002200          -0.00002500         
H                     0.51828800           1.04326100          -0.15473600         
H                     0.51851200          -0.65559300          -0.82607400         
H                     0.51848900          -0.38757400           0.98081400         
