9

C        1.931257       0.000108       0.000428
C       -2.061345      -0.000165      -0.000279
H        1.707329       1.001770       0.384088
H        1.748842      -0.742233       0.785582
H        2.982101      -0.045694      -0.306429
H        1.288773      -0.213142      -0.860780
H       -2.593422       0.896219      -0.305412
H       -1.119459       0.081875       0.533316
H       -2.469156      -0.979136      -0.234980
9

C        2.269107       0.068461       0.282286
C       -1.529611      -0.054106      -0.223469
H        1.809245       1.046733       0.384380
H        1.842628      -0.786466       0.798178
H        3.141782      -0.058621      -0.351212
H       -0.684866      -0.129152      -0.916596
H       -2.143004       0.813823      -0.488755
H       -1.154317       0.062844       0.798733
H       -2.136063      -0.964006      -0.287947
9
Number of gradient calls is 3
C                    -1.33922900           0.00000300           0.00000100         
C                     1.33922900          -0.00000200          -0.00000100         
H                    -1.62495900           0.96922600           0.39883300         
H                    -1.62496200          -0.13920000          -1.03878200         
H                    -1.62499500          -0.83001800           0.63993400         
H                     0.00000100           0.00001000           0.00000100         
H                     1.62496800           0.13872400           1.03884400         
H                     1.62501300           0.83030200          -0.63955900         
H                     1.62493600          -0.96905200          -0.39927100         
