25

C       -2.753418       0.642294       0.211312
C       -1.599124      -0.062385      -0.423245
C       -0.400410      -0.547556       0.336006
C       -0.225732      -2.068778       0.111822
C        0.903123       0.281360       0.006258
C        2.066168      -0.165837       0.914783
C        1.319769       0.126289      -1.468489
C        0.608710       1.769974       0.287190
H       -3.591962      -0.050705       0.425579
H       -3.163272       1.424472      -0.448381
H       -2.464248       1.106387       1.164816
H       -1.698708      -0.361218      -1.468570
H       -0.587470      -0.388440       1.412351
H       -0.066923      -2.295476      -0.950626
H       -1.134825      -2.594875       0.433901
H        0.618900      -2.470921       0.686487
H        2.922474       0.513496       0.793564
H        2.409809      -1.178920       0.668021
H        1.767421      -0.149434       1.973328
H        1.593337      -0.910944      -1.703475
H        2.193745       0.758952      -1.680002
H        0.507338       0.434072      -2.140543
H        1.496336       2.385425       0.081214
H        0.325127       1.921701       1.339228
H       -0.214982       2.127936      -0.345150
25

C       -2.900998       0.715451       0.216760
C       -2.113655      -0.491217      -0.219078
C       -1.368081      -1.262635       0.587676
C       -0.571578      -2.456617       0.134619
C        1.534042       0.721340      -0.116851
C        2.457348       0.089752       0.882796
C        1.646878       0.340650      -1.562888
C        0.852586       2.006505       0.247215
H       -3.983403       0.549773       0.083891
H       -2.628549       1.597075      -0.385882
H       -2.719153       0.958757       1.273199
H       -2.162639      -0.735933      -1.286317
H       -1.306167      -1.017015       1.653656
H       -0.586758      -2.562074      -0.959286
H       -0.967483      -3.387032       0.575677
H        0.479030      -2.364088       0.452201
H        3.417640       0.640925       0.957640
H        2.695154      -0.950027       0.609783
H        2.006434       0.078532       1.888729
H        1.834045      -0.738540      -1.678352
H        2.478581       0.877721      -2.064606
H        0.721293       0.579916      -2.109650
H        1.544567       2.870785       0.170751
H        0.474209       1.977652       1.281615
H       -0.002243       2.207053      -0.416209
25
Number of gradient calls is 4
C                    -2.59212000          -0.93552300          -0.13886500         
C                    -1.78728500           0.24353300           0.29559500         
C                    -0.75205700           0.78948000          -0.40931900         
C                    -0.27645900           2.18384000          -0.09471800         
C                     1.08139200          -0.39345100           0.03477400         
C                     2.02694100           0.00481300          -1.05940200         
C                     1.46057600           0.04453700           1.41627200         
C                     0.60313300          -1.81102000          -0.05816100         
H                    -3.65389300          -0.67816500          -0.21059500         
H                    -2.52256200          -1.76764200           0.56923500         
H                    -2.27029100          -1.30036600          -1.11546000         
H                    -2.03484900           0.67352000           1.26298100         
H                    -0.64149900           0.47708200          -1.44538400         
H                    -0.33519000           2.38249000           0.97690000         
H                    -0.90834400           2.91787800          -0.60124000         
H                     0.74832800           2.36439700          -0.41751300         
H                     2.95837800          -0.57382300          -0.98766200         
H                     2.30410800           1.05880900          -1.00714100         
H                     1.60464000          -0.19221100          -2.04794500         
H                     1.76894400           1.09089200           1.44454600         
H                     2.30206400          -0.55260000           1.79367700         
H                     0.62844900          -0.08991700           2.11166100         
H                     1.44182300          -2.50605400           0.08377500         
H                     0.16489000          -2.02732500          -1.03511400         
H                    -0.13972200          -2.03421800           0.70821300         
