27

C        2.378794       1.534798       0.121068
C        1.793837       0.133421      -0.116524
C        2.540954      -0.581610      -1.253645
C        1.842387      -0.700522       1.173368
C       -1.962060       0.678178       1.279310
C       -2.268860      -0.119355       0.049257
C       -1.884285      -1.563301      -0.052478
C       -2.684804       0.604489      -1.194565
H        2.322033       2.144359      -0.787370
H        3.431925       1.465799       0.418570
H        0.741500       0.247469      -0.416344
H        2.112458      -1.571614      -1.444426
H        2.489033      -0.004047      -2.183038
H        3.598196      -0.714094      -0.994706
H        2.879105      -0.832118       1.505342
H        1.286800      -0.210103       1.979657
H        1.407161      -1.693178       1.016529
H       -1.808365       0.032573       2.149416
H       -2.774601       1.381002       1.508879
H       -0.952906      -1.703206      -0.629554
H       -1.727474      -2.008601       0.934673
H       -2.657092      -2.143384      -0.575334
H       -3.255104      -0.049028      -1.865216
H       -3.297244       1.482935      -0.959837
H       -1.813528       0.967986      -1.769772
H       -1.051183       1.291152       1.158040
H        1.836218       2.058161       0.915956
27

C        2.522652       1.544575       0.164347
C        2.253390       0.076056       0.017222
C        2.696129      -0.617859      -1.236914
C        2.034802      -0.742563       1.254958
C       -2.121845       0.615663       1.240901
C       -1.692015       0.051084      -0.121623
C       -1.810460      -1.479972      -0.141637
C       -2.513159       0.676794      -1.260048
H        2.350150       2.076873      -0.778384
H        3.568728       1.730052       0.467362
H       -0.636329       0.315877      -0.282102
H        2.156245      -1.561283      -1.380235
H        2.517501       0.005873      -2.120593
H        3.775492      -0.851186      -1.204170
H        2.992913      -0.976128       1.752903
H        1.405754      -0.209583       1.977522
H        1.541636      -1.692996       1.020666
H       -1.533651       0.175250       2.054410
H       -3.180567       0.406163       1.439210
H       -1.484673      -1.889525      -1.104946
H       -1.192494      -1.934521       0.641111
H       -2.848014      -1.796038       0.024561
H       -3.563387       0.363151      -1.208833
H       -2.486067       1.771677      -1.213329
H       -2.120467       0.375339      -2.238204
H       -1.981481       1.702227       1.278882
H        1.872006       1.993281       0.924271
27
Number of gradient calls is 79
C                     1.72151400           1.25362800           0.75142700         
C                     1.34564900           0.00008100           0.00028500         
C                     1.71856400           0.02416900          -1.46165300         
C                     1.72073200          -1.27779900           0.70965100         
C                    -1.72146500           0.32015500           1.42625700         
C                    -1.34566300           0.00005200           0.00035100         
C                    -1.71948200          -1.39525900          -0.43577900         
C                    -1.71985100           1.07501500          -0.99026700         
H                     1.31460100           2.14407700           0.26623800         
H                     2.81140800           1.37481400           0.79860800         
H                     0.00000100           0.00032700           0.00123600         
H                     1.31256400          -0.84242100          -1.98898000         
H                     1.34385800           0.92536200          -1.95213000         
H                     2.80822100           0.00701400          -1.59247900         
H                     2.81061800          -1.38178700           0.78779500         
H                     1.31679200          -1.30156000           1.72460500         
H                     1.34568600          -2.15345400           0.17514500         
H                    -1.31662800          -0.42118800           2.11936000         
H                    -2.81139700           0.32948600           1.55565600         
H                    -1.31340300          -1.62422200          -1.42399300         
H                    -1.34557100          -2.14412100           0.26599800         
H                    -2.80921400          -1.51325100          -0.49342700         
H                    -2.80965200           1.18277300          -1.06439500         
H                    -1.31506700           2.04576900          -0.69416700         
H                    -1.34514700           0.84212500          -1.98949400         
H                    -1.34789300           1.30230500           1.72446000         
H                     1.35022700           1.22770200           1.77834500         
