8
Coordinates from ORCA-job geo_opt
  N   0.89865891151819      0.81483153286546      1.61115887079512
  C   -0.09609459570689      0.73097879951011      0.77093033064862
  H   0.86620094041741      1.38166057449568      2.44583905278776
  N   -1.23732907491138      1.35189095682144      0.89168233933461
  H   0.03611495445196      0.09401525522689     -0.09754195495743
  H   -1.45019935599631      1.96450433985257      1.66526707127240
  H   -1.95317340280177      1.22910427844173      0.19313265664772
  H   1.74732162302880      0.29938426278611      1.43916163347120
