13

C        0.563448      -1.378379       0.002632
C       -0.000239       0.000278      -0.014263
C       -1.475912       0.201165       0.002326
C        0.912507       1.177087       0.002611
H        1.242644      -1.524223       0.851442
H       -0.227111      -2.126846       0.066240
H       -1.960006      -0.315859      -0.834891
H       -1.730429       1.259841      -0.058019
H       -1.928153      -0.203878       0.917131
H        0.812968       1.752097       0.933060
H        0.685416       1.871807      -0.814356
H        1.151702      -1.583529      -0.901072
H        1.954456       0.868823      -0.090572
13

C        0.525243      -1.300110       0.120269
C        0.012897       0.105507       0.220303
C       -1.255741       0.376722       0.502620
C        1.008190       1.219230      -0.016866
H        1.327369      -1.464175       0.845470
H       -0.261736      -2.030836       0.305538
H       -2.497574      -0.935572      -2.055406
H       -1.608054       1.399618       0.572420
H       -1.977302      -0.412019       0.675962
H        1.087115       1.858962       0.863422
H        0.699457       1.838210      -0.860693
H        0.939723      -1.482992      -0.875289
H        2.001712       0.825755      -0.235550
