21

C       -2.219559       0.041266      -1.219988
C       -1.553661       0.375651       0.122007
C       -1.740112      -0.740449       1.159190
C        1.831535      -0.811618      -0.944652
C        1.697056       0.527238      -0.290063
C        2.085961       0.718818       1.142054
H       -2.067806       0.848944      -1.951172
H       -3.303429      -0.107963      -1.096812
H       -0.469193       0.533576      -0.041066
H       -1.967820       1.318453       0.515351
H       -1.247190      -0.485752       2.109014
H       -2.807495      -0.915271       1.364864
H        1.520822      -1.618692      -0.262763
H        2.880694      -1.024318      -1.235813
H        1.226372      -0.875233      -1.861363
H        1.683381       1.408774      -0.935420
H        1.762573      -0.135080       1.757808
H        3.185679       0.802303       1.262337
H        1.648046       1.637405       1.560349
H       -1.797676      -0.883781      -1.641994
H       -1.308164      -1.684680       0.793581
21

C       -2.424674      -0.021914      -1.172125
C       -2.176047       0.296599       0.269477
C       -1.890256      -0.797166       1.250709
C        1.806216      -0.757806      -0.959670
C        1.738636       0.662704      -0.381565
C        2.122423       0.705696       1.104120
H       -2.347314       0.880258      -1.797394
H       -3.437721      -0.446338      -1.325218
H        0.717914       1.055090      -0.503868
H       -2.464166       1.279262       0.648095
H       -1.452381      -0.395303       2.176957
H       -2.813807      -1.344048       1.529581
H        1.131167      -1.435924      -0.415390
H        2.826043      -1.166275      -0.887509
H        1.512065      -0.768649      -2.020110
H        2.408636       1.324727      -0.954239
H        1.451737       0.069049       1.701123
H        3.152999       0.349578       1.256773
H        2.056802       1.730011       1.500775
H       -1.695228      -0.758161      -1.547400
H       -1.183046      -1.531609       0.832166
