19

C        2.053048       1.118130      -0.169944
C        0.995133       0.304465       0.500400
C       -0.000980      -0.512962      -0.264419
C        0.278234      -2.027118      -0.081731
C       -1.453790      -0.191010       0.170204
C       -1.840237       1.268750      -0.105454
H        2.636844       0.510482      -0.886582
H        2.751687       1.556722       0.554745
H        1.615413       1.944860      -0.762019
H        0.957498       0.261918       1.590795
H        0.095092      -0.276484      -1.338638
H        1.296876      -2.277346      -0.409469
H       -0.433722      -2.628864      -0.666754
H       -1.553980      -0.402212       1.247418
H       -2.145156      -0.864005      -0.362103
H       -1.165482       1.952183       0.429519
H       -2.869930       1.473966       0.220203
H        0.180188      -2.307005       0.977098
H       -1.770496       1.493559      -1.180012
19

C        2.075750       1.356206      -0.191068
C        1.425820       0.071303       0.248473
C        1.175161      -0.982646      -0.543965
C        0.502091      -2.250562      -0.091082
C       -2.407257       0.018613       0.445327
C       -2.140347       1.406374      -0.038857
H        2.432182       1.297500      -1.229348
H        2.937259       1.599396       0.451956
H        1.365492       2.197036      -0.120387
H        1.133485       0.019421       1.303277
H        1.457455      -0.936237      -1.601840
H        1.143282      -3.126427      -0.285857
H       -0.443271      -2.405545      -0.636261
H       -2.203356      -0.258856       1.478407
H       -2.886111      -0.712752      -0.204662
H       -1.334743       1.879422       0.541710
H       -3.040189       2.046800       0.052196
H        0.273179      -2.226380       0.983354
H       -1.839672       1.405245      -1.098185
