16

C       -2.614620      -0.098289       0.211732
C       -1.274640       0.007626      -0.441533
C       -0.006052       0.034867       0.349863
C        1.262316       0.016478      -0.519348
C        2.547071       0.051159       0.319957
H       -2.567484       0.210032       1.266688
H       -3.366045       0.523401      -0.301387
H       -1.219077      -0.023237      -1.530810
H        0.021777      -0.824872       1.050673
H        0.015080       0.934428       0.998931
H        1.242732       0.882636      -1.199439
H        1.254920      -0.889802      -1.145043
H        3.439043       0.037241      -0.321870
H        2.596956      -0.817665       0.992310
H       -3.003514      -1.135840       0.191768
H        2.584906       0.960584       0.937157
16

C       -3.066278      -0.334674       0.187746
C       -1.664430       0.205560       0.106520
C       -0.826404       0.346451       1.142961
C        2.210139      -0.052946      -1.194246
C        3.060136      -0.014799       0.034643
H       -3.351852      -0.569750       1.222777
H       -3.788553       0.397051      -0.209322
H       -1.318216       0.500479      -0.889928
H       -1.113815       0.063109       2.158245
H        0.179058       0.744606       1.000193
H        2.030541       0.853242      -1.772065
H        1.860011      -1.002799      -1.595946
H        4.136275      -0.094381      -0.216683
H        2.813192      -0.846428       0.711446
H       -3.164568      -1.253734      -0.413078
H        2.918073       0.927612       0.586347
