19

C        2.622391      -0.215551       0.326763
C        1.497652       0.372582      -0.461953
C        0.212114       0.804971       0.166538
C       -1.029886       0.025099      -0.352661
C       -0.900985      -1.473785      -0.039192
C       -2.319275       0.602434       0.252910
H        3.534028      -0.316344      -0.277749
H        2.369379      -1.221184       0.718021
H        2.858430       0.402989       1.210741
H        1.574892       0.414860      -1.549989
H        0.031558       1.879091      -0.036251
H        0.270293       0.686718       1.261295
H       -1.069512       0.149652      -1.448431
H        0.004363      -1.891660      -0.501275
H       -1.770514      -2.030729      -0.417372
H       -0.838240      -1.634851       1.047952
H       -2.306031       0.506291       1.349211
H       -3.203347       0.068182      -0.124534
H       -2.431614       1.668047       0.004804
19

C        2.783098      -0.297466       0.391016
C        1.812276       0.673809      -0.222643
C        1.117474       1.602670       0.448957
C       -1.727809      -0.407959      -0.668855
C       -1.172373      -1.695417      -0.146907
C       -2.664290       0.417317       0.156250
H        3.777584      -0.205814      -0.075617
H        2.443216      -1.334953       0.237138
H        2.895084      -0.130968       1.471735
H        1.667496       0.590086      -1.304917
H        0.414174       2.260718      -0.062728
H        1.213539       1.720412       1.530868
H       -1.630012      -0.186518      -1.733375
H       -0.272487      -1.994842      -0.705882
H       -1.905678      -2.523526      -0.232123
H       -0.894336      -1.605125       0.915508
H       -2.367721       0.412295       1.217436
H       -3.705144       0.037941       0.098333
H       -2.678271       1.464150      -0.185306
