24

C       -2.344471       1.101389      -0.561126
C       -1.773113      -0.319103      -0.451953
C       -2.305022      -1.066547       0.778747
C        1.616789       1.425341      -0.561619
C        1.516290       0.048161       0.023823
C        1.430052      -0.094444       1.514366
C        2.017023      -1.114633      -0.780332
H       -1.944152       1.622902      -1.442516
H       -2.085442       1.692179       0.330544
H       -3.441665       1.080236      -0.645117
H       -0.671613      -0.259288      -0.388721
H       -2.021582      -0.886896      -1.363196
H       -3.401205      -1.158018       0.741518
H       -2.041244      -0.529227       1.701933
H        2.641686       1.839211      -0.463656
H        1.373697       1.422707      -1.634831
H        0.787582       0.683482       1.953733
H        2.426086       0.000532       1.994059
H        1.030472      -1.079295       1.799601
H        1.612490      -2.065950      -0.402633
H        3.122915      -1.195955      -0.739219
H        1.743014      -1.015322      -1.841505
H       -1.880348      -2.079090       0.841492
H        0.938826       2.126708      -0.052207
24

C       -2.646427       1.107325      -0.589190
C       -2.615271      -0.388736      -0.536073
C       -2.622706      -1.102733       0.780050
C        1.750649       1.399485      -0.554580
C        1.398891      -0.018206      -0.075787
C        1.462576      -0.110836       1.457241
C        2.321145      -1.061328      -0.727041
H       -2.346839       1.475118      -1.582115
H       -1.961288       1.545194       0.154890
H       -3.662719       1.499035      -0.381657
H        0.363986      -0.234757      -0.385778
H       -2.850564      -0.952125      -1.441123
H       -3.636612      -1.114545       1.228666
H       -1.944532      -0.616258       1.499598
H        2.780710       1.667443      -0.270633
H        1.670194       1.479008      -1.649376
H        0.780603       0.615046       1.926415
H        2.480660       0.096469       1.823220
H        1.175835      -1.114808       1.805532
H        2.051754      -2.080565      -0.410686
H        3.372387      -0.887124      -0.447769
H        2.251854      -1.020705      -1.824737
H       -2.300168      -2.148633       0.665289
H        1.072981       2.146145      -0.112935
