13

C        0.442738      -1.392380      -0.143398
C        0.022484      -0.055462       0.376490
C        0.988148       1.054627      -0.116937
C       -1.420842       0.283149      -0.069929
H        0.827283      -2.175226       0.507232
H        0.402787      -1.588449      -1.215283
H        0.052461      -0.066698       1.477876
H        0.675677       2.036560       0.269115
H        0.987986       1.096828      -1.215627
H        2.014528       0.856641       0.220508
H       -2.130455      -0.468869       0.301150
H       -1.484512       0.304248      -1.167605
H       -1.724107       1.268472       0.313826
13

C        0.252816      -1.626593      -0.030073
C       -0.589630      -0.825665       0.638704
C        1.692631       1.894548      -0.423669
C       -1.647410       0.028068      -0.005299
H        1.008166      -2.221626       0.485177
H        0.214785      -1.709291      -1.118265
H       -0.514515      -0.767367       1.729151
H        1.125321       2.648478       0.116493
H        1.421474       1.638905      -1.444578
H        2.468058       1.329996       0.086842
H       -2.649648      -0.265294       0.347076
H       -1.629378      -0.058479      -1.100347
H       -1.498281       1.087510       0.256278
