19

C        2.223093      -0.067512      -0.007278
C        0.894308      -0.752028      -0.014970
C       -0.421538      -0.017713       0.004080
C       -1.568707      -1.015930       0.264245
C       -0.430923       1.064624       1.114480
C       -0.663509       0.676836      -1.365048
H        2.969518      -0.644453      -0.574350
H        2.624700       0.042224       1.019586
H        2.167226       0.943451      -0.436666
H        0.881680      -1.842703       0.016641
H       -1.435394      -1.514609       1.234961
H       -1.595752      -1.787822      -0.518296
H       -2.539345      -0.500187       0.272101
H       -1.402489       1.579674       1.136751
H        0.350693       1.816629       0.942558
H       -0.258655       0.607489       2.099029
H       -0.677792      -0.065315      -2.175153
H        0.128930       1.406371      -1.581182
H       -1.627622       1.207251      -1.360556
19

C        2.424387      -0.325979       0.466593
C        1.294534      -0.155013      -0.527290
C        0.246349       0.680577      -0.396609
C       -2.444193      -1.869090       0.595239
C        0.028770       1.565676       0.808080
C       -0.809143       0.790852      -1.473578
H        3.194742      -0.993312       0.056962
H        2.070220      -0.771405       1.409894
H        2.910828       0.634081       0.695795
H        1.364784      -0.761626      -1.434868
H       -1.858947      -2.015831       1.499444
H       -2.159879      -2.378505      -0.321760
H       -3.258954      -1.149298       0.586285
H       -1.012676       1.489316       1.158020
H        0.219308       2.621908       0.554356
H        0.677272       1.297853       1.652169
H       -0.661582       0.049198      -2.270782
H       -0.792363       1.793188      -1.934314
H       -1.815177       0.633909      -1.052726
