22

C        2.862629      -0.240401       0.254494
C        1.532516       0.182864      -0.279864
C        0.239000      -0.300014       0.303150
C       -0.069743       0.444254       1.632811
C       -0.926174      -0.215274      -0.727755
C       -2.094219      -1.137984      -0.337140
C       -1.435522       1.219374      -0.953245
H        2.777297      -1.157073       0.856585
H        3.319942       0.536869       0.898378
H        3.583709      -0.424971      -0.559609
H        1.511188       0.990469      -1.014174
H        0.363492      -1.367010       0.567382
H       -1.026977       0.114716       2.062635
H       -0.109611       1.529383       1.472999
H        0.721934       0.238608       2.366097
H       -0.518099      -0.582023      -1.684974
H       -2.551570      -0.820143       0.610959
H       -1.755669      -2.177909      -0.222825
H       -2.876901      -1.117264      -1.109408
H       -1.977356       1.588561      -0.071530
H       -2.126737       1.246346      -1.807608
H       -0.609971       1.913239      -1.164563
22

C        3.179885      -0.436993      -0.033333
C        2.000333       0.300111       0.541797
C        1.152288      -0.188035       1.460412
C       -0.026336       0.561940       2.020572
C       -1.500097      -0.226474      -1.338276
C       -2.440765      -1.203320      -0.705751
C       -1.772749       1.244157      -1.297166
H        3.258612      -1.456403       0.370710
H        4.120952       0.092770       0.190160
H        3.098326      -0.510077      -1.130462
H        1.839480       1.315770       0.162333
H        1.301908      -1.205049       1.840190
H       -0.959409      -0.000067       1.855594
H       -0.137772       1.549526       1.552203
H        0.080993       0.707823       3.108722
H       -0.741254      -0.599732      -2.028089
H       -2.821404      -0.824014       0.256690
H       -1.943317      -2.167023      -0.516395
H       -3.318486      -1.405675      -1.353216
H       -2.197519       1.543198      -0.325625
H       -2.491873       1.550214      -2.084325
H       -0.848595       1.821942      -1.453827
