19

C       -1.772075       0.271346       1.070422
C       -0.741227       0.087092      -0.003163
C       -1.007009       0.654072      -1.368118
C        0.614475      -0.473441       0.343351
C        1.260066      -1.255182      -0.819134
C        1.573758       0.652942       0.818370
H       -1.888241       1.336330       1.355217
H       -2.768650      -0.064569       0.732778
H       -1.120403      -0.137973      -2.131529
H       -0.181713       1.301018      -1.715039
H       -1.929827       1.251025      -1.373857
H        0.491360      -1.169260       1.192045
H        1.483545      -0.590660      -1.665571
H        0.591653      -2.052496      -1.173988
H        2.203289      -1.716013      -0.492294
H        1.739464       1.379915       0.009962
H        2.549027       0.235908       1.112955
H        1.149685       1.187021       1.680220
H       -1.512885      -0.287350       1.981167
19

C       -2.159310      -0.016723       0.994692
C       -0.835170       0.457741       0.435966
C       -0.906255       0.959745      -0.986201
C        0.282894       0.412101       1.187062
C        1.670847      -1.936308      -1.660422
C        1.679614       0.827149       0.808752
H       -2.884385       0.812983       1.033292
H       -2.589394      -0.807296       0.357966
H       -1.217761       0.147544      -1.662939
H        0.046638       1.354320      -1.358045
H       -1.652366       1.766608      -1.070194
H        0.199103       0.020842       2.206670
H        1.792307      -1.060463      -2.292239
H        0.697487      -2.412433      -1.576096
H        2.499971      -2.285645      -1.050542
H        1.767571       1.174916      -0.227376
H        2.371778      -0.020652       0.934123
H        2.028703       1.638377       1.468848
H       -2.057982      -0.423107       2.010390
