18

C       -1.906893      -0.230752      -0.749455
C       -2.386038       0.146378       0.658958
C        1.444469       1.344125       0.123868
C        1.425096      -0.023488      -0.481443
C        1.596414      -1.242792       0.367693
H       -0.804694      -0.185620      -0.802032
H       -2.316160       0.458306      -1.502789
H       -2.221805      -1.251283      -1.012546
H       -2.068315       1.166220       0.920665
H       -1.970219      -0.540347       1.410830
H        2.479159       1.695451       0.315872
H        0.919664       1.356113       1.091745
H        0.974465       2.085813      -0.539131
H        1.626574      -0.112659      -1.551211
H        2.663204      -1.433008       0.605593
H        1.217738      -2.143614      -0.137956
H       -3.482702       0.104291       0.732850
H        1.070857      -1.132916       1.329070
18

C       -2.648854      -0.277834      -0.744531
C       -2.547794       0.140075       0.686904
C        1.481921       1.319868       0.119648
C        1.358660      -0.037400      -0.586731
C        1.634259      -1.213172       0.360740
H        0.345316      -0.138333      -1.005149
H       -2.808632       0.462854      -1.527276
H       -2.697426      -1.333101      -1.010720
H       -2.068676       1.126694       0.777795
H       -1.954481      -0.582133       1.268349
H        2.498599       1.469041       0.514633
H        0.777301       1.389883       0.962449
H        1.263536       2.146921      -0.572572
H        2.061552      -0.075751      -1.434818
H        2.656358      -1.162729       0.766516
H        1.524919      -2.175551      -0.161403
H       -3.548266       0.208296       1.157865
H        0.932287      -1.207518       1.208801
