16

C       -1.368773       1.143454      -0.182020
C       -0.510228      -0.030785       0.185023
C       -0.994384      -1.422807      -0.087479
C        0.892159       0.203677       0.662761
C        1.934854       0.111808      -0.482780
H       -1.739242       1.674090       0.716331
H       -2.245675       0.834962      -0.768407
H       -1.028042      -1.645643      -1.172363
H       -2.021464      -1.571336       0.288561
H       -0.343306      -2.173334       0.383071
H        1.162174      -0.541722       1.430733
H        0.969107       1.201225       1.125002
H        1.910837      -0.884959      -0.944342
H        2.950779       0.294259      -0.102196
H        1.716346       0.855996      -1.261283
H       -0.805920       1.889790      -0.769838
16

C       -1.479839       1.144268      -0.132912
C       -0.720309       0.004660       0.505152
C       -0.981939      -1.364032      -0.076331
C        0.140085       0.198647       1.519050
C        2.688626       0.057782      -1.281626
H       -1.396661       2.070300       0.451873
H       -2.549905       0.899392      -0.224370
H       -0.768398      -1.374089      -1.157404
H       -2.038552      -1.646426       0.059269
H       -0.361594      -2.136827       0.397359
H        0.696494      -0.628680       1.962112
H        0.328760       1.193202       1.926506
H        2.377514      -0.971878      -1.437695
H        3.529072       0.278833      -0.628863
H        2.110236       0.869234      -1.715524
H       -1.094381       1.344104      -1.146096
