22

C        2.662835       0.574315      -0.714207
C        1.377648      -0.103873      -1.063323
C        0.050685       0.535252      -0.818158
C       -0.801117      -0.103022       0.333038
C       -0.009956      -0.055698       1.652984
C       -2.101852       0.708644       0.482306
C       -1.147670      -1.563583      -0.009821
H        2.733020       1.570395      -1.188859
H        2.750703       0.752282       0.374171
H        1.407716      -1.098932      -1.506282
H       -0.567257       0.484047      -1.734179
H        0.196853       1.600609      -0.576466
H       -0.611799      -0.460583       2.479479
H        0.267277       0.977954       1.906455
H        0.910085      -0.650813       1.573797
H       -1.883613       1.757596       0.730410
H       -2.729096       0.292073       1.283831
H       -2.684245       0.691486      -0.450504
H       -0.238970      -2.175799      -0.085151
H       -1.685366      -1.624097      -0.967427
H       -1.788348      -1.999732       0.770086
H        3.532766      -0.016347      -1.029728
22

C        2.857841       0.638132      -0.749297
C        1.599119       0.198864      -1.445590
C        0.639448       1.017724      -1.898588
C       -1.207260      -0.385827       0.869146
C       -0.180853      -0.185764       1.944202
C       -2.324469       0.606563       0.740518
C       -1.375066      -1.749108       0.266468
H        2.934499       1.733540      -0.702210
H        2.886532       0.247742       0.281206
H        1.470072      -0.881384      -1.570195
H       -0.259013       0.624089      -2.375518
H        0.710846       2.102061      -1.787693
H       -0.564946      -0.494698       2.938493
H        0.116050       0.872418       2.018465
H        0.727599      -0.774859       1.743300
H       -1.964234       1.635164       0.899578
H       -3.126615       0.415975       1.483323
H       -2.783855       0.563129      -0.259763
H       -0.403175      -2.251242       0.138514
H       -1.854945      -1.690883      -0.723668
H       -2.006218      -2.402922       0.903351
H        3.748950       0.253487      -1.271651
