25

C       -1.768371       0.091434       1.305647
C       -1.349150      -0.270673      -0.089494
C       -2.419415      -0.653037      -1.070010
C        0.048937      -0.005125      -0.590703
C        0.201339       1.476088      -1.033208
C        1.176261      -0.459763       0.395380
C        2.422152      -0.911309      -0.389514
C        1.584553       0.598961       1.436504
H       -1.670999       1.176366       1.502416
H       -1.158500      -0.420395       2.068437
H       -2.819165      -0.179374       1.479036
H       -3.103356       0.192022      -1.287100
H       -3.054111      -1.464625      -0.673138
H       -1.994608      -0.987054      -2.027133
H        0.177319      -0.609958      -1.504825
H        1.210456       1.672944      -1.424138
H        0.011656       2.160622      -0.196720
H       -0.522098       1.701925      -1.828648
H        0.790706      -1.339238       0.937348
H        3.215701      -1.242738       0.296273
H        2.823966      -0.085265      -0.994916
H        2.184844      -1.746239      -1.064302
H        2.270156       0.153530       2.171816
H        0.720853       0.999523       1.981034
H        2.108144       1.438363       0.958634
25

C       -1.942824       0.426611       0.905239
C       -1.746585       0.044690      -0.543046
C       -2.590187      -1.125390      -1.000106
C       -0.898564       0.656457      -1.393007
C        0.026176       1.811335      -1.114520
C        1.784227      -0.782900       0.946698
C        2.725401      -1.120662      -0.166095
C        2.003806       0.427011       1.799365
H       -1.451733       1.369018       1.175753
H       -1.548225      -0.362182       1.567141
H       -3.015852       0.538188       1.132001
H       -3.664025      -0.878142      -0.947494
H       -2.423303      -2.003659      -0.353907
H       -2.361010      -1.420325      -2.033557
H       -0.840628       0.276151      -2.418857
H        1.061666       1.537331      -1.372999
H        0.022668       2.127614      -0.064722
H       -0.244270       2.683331      -1.733910
H        1.064713      -1.534302       1.275808
H        3.679090      -1.537127       0.217342
H        2.971392      -0.227078      -0.763724
H        2.286249      -1.868581      -0.842937
H        2.732916       0.228130       2.611071
H        1.065025       0.752417       2.273530
H        2.390957       1.268775       1.203565
