28

C        1.583232      -1.877684      -1.191668
C        1.205538      -1.129721       0.051999
C        0.598720       0.257863       0.094760
C        1.176168       0.940982       1.366389
C        1.093706       1.097394      -1.108177
C       -0.995758       0.188531       0.152187
C       -1.617335       1.589684       0.378247
C       -1.598657      -0.400060      -1.164001
C       -1.471666      -0.703475       1.324217
H        0.734203      -1.993942      -1.884975
H        1.933050      -2.886484      -0.934851
H        2.399142      -1.375050      -1.738839
H        1.311565      -1.657388       1.000799
H        2.274253       0.933454       1.333057
H        0.877084       0.426284       2.288452
H        0.864250       1.991027       1.445675
H        0.747204       0.712505      -2.074833
H        2.191792       1.106924      -1.139495
H        0.764997       2.141430      -1.029375
H       -1.339740       2.297335      -0.414217
H       -1.323638       2.020901       1.343943
H       -2.714366       1.518203       0.381751
H       -0.854377      -0.556325      -1.951056
H       -2.361714       0.265142      -1.589971
H       -2.080282      -1.371571      -0.989820
H       -1.168318      -0.302440       2.300408
H       -1.082910      -1.727107       1.238391
H       -2.568942      -0.769112       1.327434
28

C        1.706490      -1.972344      -0.943702
C        1.844073      -1.075362       0.265594
C        1.785253       0.272003       0.227566
C        1.906026       1.116910       1.473022
C        1.572836       1.018638      -1.076295
C       -2.259005       0.136821       0.070953
C       -2.126012       1.598601       0.375523
C       -2.532050      -0.290909      -1.339207
C       -1.764341      -0.873407       1.060064
H        0.743135      -1.810885      -1.452706
H        1.766588      -3.029942      -0.661245
H        2.497760      -1.772364      -1.683595
H        2.002033      -1.568201       1.228183
H        2.745136       1.824821       1.384168
H        2.065571       0.499055       2.366042
H        0.991752       1.713211       1.623078
H        0.604979       0.754114      -1.528183
H        2.351334       0.763216      -1.810724
H        1.591030       2.104445      -0.922294
H       -1.154751       2.007321       0.029703
H       -2.188087       1.789881       1.456534
H       -2.909099       2.186563      -0.128570
H       -1.599248      -0.383630      -1.934280
H       -3.171041       0.434896      -1.863736
H       -3.021881      -1.276080      -1.371963
H       -1.989040      -0.566020       2.092945
H       -0.666314      -1.002964       0.996556
H       -2.216153      -1.861197       0.883398
