10

C       -1.290443       0.257156       0.017398
C       -0.049135      -0.563525      -0.093748
C        1.239423       0.283093       0.072293
H       -2.023044       0.092881       0.805222
H       -1.448337       1.094302      -0.662860
H       -0.000845      -1.042779      -1.090923
H       -0.053539      -1.369303       0.654885
H        1.273042       1.083176      -0.680650
H        1.269268       0.747734       1.067434
H        2.133700      -0.345846      -0.047732
10

C       -1.658395       0.032284      -0.006738
C       -0.940679      -1.075381      -0.234293
C        2.223278       0.848767       0.193956
H       -2.139308       0.212491       0.955323
H       -1.781256       0.792087      -0.779384
H       -0.457557      -1.247492      -1.196465
H       -0.811313      -1.834389       0.537941
H        1.924802       1.466983      -0.648099
H        1.828490       1.057058       1.184263
H        2.862249      -0.015628       0.034795
