28

C        1.439040       0.048187      -1.934836
C        1.286575       0.543761      -0.526196
C        1.711062       1.960890      -0.260870
C        0.523382      -0.227636       0.530170
C        1.083955      -1.663522       0.668840
C       -1.046164      -0.177076       0.400174
C       -1.509895       1.280461       0.196292
C       -1.689930      -0.698134       1.707382
C       -1.580892      -1.028351      -0.770112
H        2.401045       0.376431      -2.359779
H        0.641671       0.449993      -2.589114
H        1.406743      -1.046802      -2.000621
H        2.743298       2.133101      -0.609883
H        1.675419       2.205305       0.809303
H        1.060843       2.682359      -0.791186
H        0.752874       0.269609       1.488658
H        0.846738      -2.293199      -0.198045
H        0.689791      -2.164713       1.562667
H        2.177573      -1.635751       0.767101
H       -1.186330       1.674948      -0.776469
H       -1.111817       1.938734       0.981751
H       -2.606709       1.348093       0.227645
H       -1.480225      -1.763201       1.872433
H       -2.782974      -0.583433       1.674817
H       -1.322160      -0.139287       2.580740
H       -1.357757      -2.095023      -0.635674
H       -1.163621      -0.711218      -1.733535
H       -2.674203      -0.933136      -0.841075
28

C        1.768182       0.070682      -1.946023
C        1.724799       0.525841      -0.505889
C        1.770029       2.028417      -0.330833
C        1.649444      -0.293254       0.563520
C        1.603759      -1.798369       0.588952
C       -2.209923      -0.137743       0.412769
C       -2.150217       1.347065       0.223463
C       -2.123106      -0.680939       1.806055
C       -1.940994      -1.033628      -0.756746
H        2.630361       0.520913      -2.460000
H        0.863334       0.407286      -2.474861
H        1.838576      -1.016601      -2.048683
H        2.723935       2.430744      -0.705588
H        1.664816       2.316935       0.721892
H        0.966977       2.511249      -0.908257
H        1.613962       0.168844       1.554761
H        1.700044      -2.244777      -0.406442
H        0.655398      -2.143742       1.026760
H        2.414450      -2.191416       1.220262
H       -2.490178       1.638047      -0.780403
H       -1.117100       1.727234       0.342005
H       -2.768756       1.870576       0.968074
H       -2.378637      -1.748809       1.839510
H       -2.796928      -0.139250       2.487856
H       -1.101808      -0.572782       2.223425
H       -2.283254      -2.060067      -0.563794
H       -0.859566      -1.087097      -0.986350
H       -2.440465      -0.663952      -1.664882
