28

C       -1.772531       1.140087       0.991625
C       -1.023925       0.552034      -0.171659
C       -1.427316       1.022760      -1.541026
C       -0.102535      -0.646746       0.008945
C       -0.536186      -1.504585       1.228235
C       -0.179041      -1.599157      -1.214887
C        1.404492      -0.205567       0.209633
C        1.975389       0.571167      -0.991691
C        1.631270       0.639778       1.477007
H       -2.697370       0.572285       1.214768
H       -2.080893       2.171724       0.772366
H       -1.181438       1.151229       1.915576
H       -2.241450       0.403593      -1.966286
H       -0.600738       0.989563      -2.261955
H       -1.802456       2.054576      -1.501183
H       -0.544020      -0.942695       2.166355
H        0.147759      -2.355716       1.348757
H       -1.547377      -1.900813       1.067351
H       -1.199587      -1.988542      -1.325157
H        0.496315      -2.452666      -1.066603
H        0.095241      -1.111619      -2.154616
H        1.983085      -1.139572       0.316804
H        1.929732      -0.005033      -1.922919
H        3.029885       0.817225      -0.807874
H        1.430045       1.513405      -1.132700
H        1.081939       1.587722       1.409647
H        2.698882       0.877064       1.578186
H        1.322753       0.117347       2.389732
28

C       -1.906939       1.143687       0.985995
C       -1.449392       0.339258      -0.222772
C       -1.556945       1.029195      -1.576433
C       -1.007112      -0.937157      -0.108189
C       -0.922361      -1.676188       1.209305
C       -0.573004      -1.774659      -1.291504
C        2.310554       0.019366       0.329157
C        2.406656       0.715713      -0.990906
C        2.049036       0.784621       1.587224
H       -2.874526       0.779627       1.365455
H       -2.033812       2.204571       0.735523
H       -1.180625       1.098785       1.808944
H       -2.333844       0.564455      -2.202706
H       -0.607983       0.992892      -2.129883
H       -1.819694       2.088817      -1.466875
H       -1.049041      -1.027062       2.082378
H        0.055819      -2.170919       1.309255
H       -1.695560      -2.460667       1.261649
H       -1.318273      -2.559018      -1.504649
H        0.381740      -2.277611      -1.074946
H       -0.431774      -1.191771      -2.208092
H        2.604018      -1.029025       0.397864
H        2.209428       0.020798      -1.820108
H        3.414350       1.147136      -1.152276
H        1.677493       1.537254      -1.057681
H        1.338276       1.605706       1.409212
H        2.978635       1.227657       1.996060
H        1.624769       0.133539       2.365381
