21
Number of gradient calls is 7
C                    -2.00330100          -1.04147800          -0.29007300         
C                    -1.31369000           0.28599800          -0.46934200         
C                    -1.45536200           1.25630100           0.67449600         
C                     1.45549200          -1.25634900           0.67413300         
C                     1.31360300          -0.28596600          -0.46961100         
C                     2.00324300           1.04149900          -0.29038000         
H                    -1.78117400          -1.72318100          -1.11336600         
H                    -3.09214700          -0.92561300          -0.24104000         
H                    -0.00005100           0.00001700          -0.53810300         
H                    -1.50897600           0.74050500          -1.44158600         
H                    -0.89553300           2.17543900           0.49335000         
H                    -2.50300500           1.53355800           0.83968300         
H                     1.08820500          -0.81684900           1.60593300         
H                     2.50316800          -1.53361100           0.83910500         
H                     0.89563400          -2.17547700           0.49302600         
H                     1.50870500          -0.74040400          -1.44192400         
H                     1.68699300           1.52246200           0.63915900         
H                     3.09209900           0.92563400          -0.24155800         
H                     1.78096000           1.72325800          -1.11358400         
H                    -1.68687900          -1.52250600           0.63937300         
H                    -1.08790400           0.81673500           1.60619700         
