16
Number of gradient calls is 5
C                     2.10418200          -0.08130000          -0.04228000         
C                     0.73941600          -0.68205900          -0.04771400         
C                    -0.44357400          -0.03940300           0.04108900         
C                    -0.59620300           1.45571900          -0.05873000         
C                    -1.73470900          -0.80508200          -0.08515700         
H                     2.62293400          -0.32126500           0.89140000         
H                     2.09536200           1.00154800          -0.15236600         
H                     2.70750900          -0.49679000          -0.85310700         
H                     0.71003500          -1.76816100          -0.05424800         
H                    -0.37437900          -0.04837300           1.98614500         
H                    -1.41775800           1.79808300           0.57165100         
H                    -0.83926800           1.73147700          -1.08966200         
H                    -2.46088900          -0.47811200           0.66079100         
H                    -1.58132600          -1.87782200           0.02938100         
H                     0.29994100           1.99665700           0.23667700         
H                    -2.17682500          -0.62449200          -1.06991400         
