13
Number of gradient calls is 1
C                    -0.82320500          -1.21309000           0.02854400         
C                     0.05347300          -0.00388500          -0.08366900         
C                     1.37859000          -0.09975300          -0.22806100         
C                    -0.63999700           1.31893400           0.02851300         
H                    -1.60072700          -1.19955100          -0.74046600         
H                    -0.25529300          -2.13762200          -0.06882600         
H                     2.01668300          -0.14567400           1.83186300         
H                     1.99889100           0.78118400          -0.33763100         
H                     1.86563400          -1.06079200          -0.33762700         
H                    -1.41149300           1.41745300          -0.74036800         
H                     0.05513600           2.15202400          -0.06911700         
H                    -1.33613600          -1.22344300           0.99506900         
H                    -1.14586300           1.40318300           0.99514100         
