22
Number of gradient calls is 3
C                     0.88448900           0.00000000           1.52449000         
C                     1.00716100           0.00000000           0.16233400         
C                     1.43265100           1.26929500          -0.53799800         
C                     1.43265100          -1.26929500          -0.53799800         
C                    -1.11653700           0.00000000          -0.50274000         
C                    -1.71531600          -1.26772200           0.01239100         
C                    -1.71531600           1.26772200           0.01239100         
H                     0.78641100          -0.92471000           2.07959900         
H                     0.78641100           0.92471000           2.07959900         
H                     2.52473000           1.30956900          -0.58780300         
H                     1.09229600           2.15618000          -0.00381100         
H                     1.05918400           1.31677500          -1.56286200         
H                     2.52473000          -1.30956900          -0.58780300         
H                     1.05918400          -1.31677500          -1.56286200         
H                     1.09229600          -2.15618000          -0.00381100         
H                    -0.87150600           0.00000000          -1.56182200         
H                    -2.77832300          -1.33134900          -0.25194300         
H                    -1.65229600          -1.30806000           1.10348100         
H                    -1.22560000          -2.15270000          -0.39436300         
H                    -1.22560000           2.15270000          -0.39436300         
H                    -1.65229600           1.30806000           1.10348100         
H                    -2.77832300           1.33134900          -0.25194300         
