15
Number of gradient calls is 1
C                     1.21250200          -0.81772500          -0.16140400         
C                    -0.00000400          -0.00002200           0.22379000         
C                     0.10194000           1.45889400          -0.16139500         
C                    -1.31444500          -0.64115600          -0.16138500         
H                     0.00002400          -0.00003600           1.46999300         
H                     0.00006000           0.00000300           2.50890200         
H                     1.30102700          -0.87671600          -1.25158300         
H                     1.14152200          -1.83697600           0.22253700         
H                     2.13076800          -0.37055000           0.22351800         
H                     1.01985200           1.90716700           0.22309500         
H                    -0.74476600           2.03046900           0.22297300         
H                     0.10942700           1.56497200          -1.25157700         
H                    -2.16160500          -0.07027800           0.22301600         
H                    -1.41006000          -0.68783200          -1.25156300         
H                    -1.38620800          -1.66016800           0.22305700         
