22
Number of gradient calls is 4
C                     0.05589700           2.26179900          -0.12258600         
C                    -0.54669300           1.01003900          -0.66829500         
C                    -0.78042700          -0.15352400           0.01046700         
C                    -0.76768100          -0.19996800           1.52137200         
C                    -1.66596900          -1.19585600          -0.63182700         
C                     1.14492600          -1.28318900          -0.30139400         
C                     2.29501000          -0.39103900           0.01919500         
H                     0.38532800           2.15542200           0.91025600         
H                     0.91812400           2.57994000          -0.71651400         
H                    -0.76403600           1.01656200          -1.73281900         
H                    -0.73661400          -1.22970500           1.87912900         
H                    -1.67867900           0.25836900           1.91827500         
H                     0.08175400           0.32828400           1.95274700         
H                    -2.70927700          -1.02277900          -0.34949400         
H                    -1.40499500          -2.20505500          -0.30876600         
H                    -1.60264000          -1.15716900          -1.71988100         
H                     1.00306500          -1.54548500          -1.34393500         
H                     0.93915800          -2.09393000           0.39012900         
H                     3.25447700          -0.91212200          -0.08500600         
H                     2.24438500          -0.02186500           1.04644100         
H                     2.32239800           0.47213400          -0.64821500         
H                    -0.66282700           3.08783300          -0.15393100         
