13
Number of gradient calls is 3
C                    -0.75897400           1.31114100           0.14174800         
C                    -0.38853900           0.13825700          -0.42640700         
C                     1.80705000          -0.06865900           0.10798200         
C                    -0.85997300          -1.19171600           0.09532900         
H                    -0.54743200           2.25986100          -0.33385800         
H                    -1.20935100           1.33910600           1.12744400         
H                    -0.07111200           0.15492100          -1.46392100         
H                     2.08145400          -0.88694100          -0.54652000         
H                     1.71950000          -0.29989300           1.16124900         
H                     2.21018800           0.90384000          -0.13915800         
H                    -1.81934800          -1.45151500          -0.36005300         
H                    -1.00181700          -1.15917400           1.17676000         
H                    -0.15946900          -1.99434800          -0.13386200         
