19
Number of gradient calls is 3
C                    -0.61001000           0.40660400           1.47606300         
C                    -0.77001000           0.14120900           0.14850200         
C                    -1.63503000          -1.01932600          -0.28140900         
C                    -0.67257700           1.26945800          -0.85071700         
C                     1.18423500          -0.85001100          -0.34144600         
C                     2.29558400           0.06416000           0.04319600         
H                    -0.84724000          -0.33488000           2.22920700         
H                    -0.15472000           1.32937000           1.81365400         
H                    -2.67661900          -0.69292200          -0.35734500         
H                    -1.59135800          -1.83715700           0.43834200         
H                    -1.34256600          -1.40459000          -1.25935000         
H                    -0.36845400           0.91579400          -1.83707300         
H                     0.03376600           2.03274600          -0.52353700         
H                    -1.65116300           1.74583400          -0.96224200         
H                     1.00236800          -0.99493800          -1.40136900         
H                     1.05460700          -1.74557700           0.25578000         
H                     3.27468200          -0.39488600          -0.13841600         
H                     2.24647100           0.31414900           1.10519100         
H                     2.26707600           0.99450200          -0.52798100         
