13
Number of gradient calls is 3
C                     2.03029100          -0.56993900           0.09382400         
C                     0.31194300           0.89129400          -0.30974800         
C                    -0.77065900           0.46711400           0.37875400         
C                    -1.73356700          -0.55746200          -0.11950900         
H                     1.59508300          -1.49272000          -0.26510100         
H                     2.14158100          -0.47066500           1.16479800         
H                     2.80119700          -0.12257300          -0.52073300         
H                     0.41150000           0.66470100          -1.36486800         
H                     0.91439800           1.70865900           0.06358500         
H                    -0.91683300           0.82181500           1.39461300         
H                    -1.67661200          -1.47459900           0.47622600         
H                    -1.53330100          -0.81871400          -1.15992000         
H                    -2.76505800          -0.20194800          -0.04852400         
