19
Number of gradient calls is 1
C                    -1.47467300           1.26216700          -0.05230900         
C                    -0.68868400          -0.02266400          -0.04043800         
C                    -1.53892200          -1.25634900          -0.01115100         
C                     0.66152300          -0.02105400           0.02633600         
C                     1.52240300          -1.25069100          -0.09117500         
C                     1.45115000           1.26283400          -0.04627100         
H                    -1.48916900           1.71572000           0.94452500         
H                    -2.51023200           1.07825700          -0.33990000         
H                    -1.06246100           1.99870000          -0.74254400         
H                    -2.13239600          -1.33095900          -0.92736300         
H                    -2.25057500          -1.19166300           0.81793200         
H                    -0.97709400          -2.17907400           0.10371100         
H                     0.51605700          -0.02877000           2.04609300         
H                     0.97383200          -2.18368000           0.00369400         
H                     2.30544700          -1.24236300           0.66896300         
H                     2.02128600          -1.25212400          -1.06573000         
H                     0.92196400           2.11083600           0.38304000         
H                     1.68912900           1.50206100          -1.08815500         
H                     2.39741700           1.15759900           0.48578100         
