13
Number of gradient calls is 4
C                     0.00000000           1.45314800          -0.09478200         
C                     0.00000000           0.11312500           0.03702900         
C                    -1.27276100          -0.68492000          -0.06357900         
C                     1.27276100          -0.68492000          -0.06357900         
H                     0.92533700           2.01509400          -0.11863700         
H                    -0.92533700           2.01509400          -0.11863700         
H                    -0.00000000           0.18036500           1.95226200         
H                    -1.34470700          -1.12982500          -1.06065700         
H                    -2.15215900          -0.06286500           0.09886400         
H                    -1.28549400          -1.50188500           0.65902900         
H                     1.34470600          -1.12982500          -1.06065600         
H                     1.28549400          -1.50188500           0.65903000         
H                     2.15215900          -0.06286500           0.09886300         
