22
Number of gradient calls is 4
C                    -1.66466400          -1.27832900           0.00114500         
C                    -0.87521900          -0.01854200          -0.17799200         
C                    -1.64952200           1.25005500           0.05043000         
C                     0.47853700           0.00889300          -0.37451100         
C                     1.15793500          -0.08640800           1.81692100         
C                     1.25130300          -1.20754800          -0.83133800         
C                     1.16195400           1.31791900          -0.70049100         
H                    -2.52054800          -1.29645500          -0.68051100         
H                    -2.07756100          -1.32664500           1.01603400         
H                    -1.08829600          -2.18450700          -0.16805800         
H                    -2.71964500           1.04907500           0.10940700         
H                    -1.49295100           1.98275900          -0.74421300         
H                    -1.35704800           1.73139300           0.99145900         
H                     0.68969100           0.79497400           2.23582600         
H                     2.23077100          -0.03974400           1.67885800         
H                     0.75518700          -1.04026300           2.13201200         
H                     0.92796900          -2.12743700          -0.34881800         
H                     2.31496600          -1.08663100          -0.62416500         
H                     1.14256300          -1.33964700          -1.91267800         
H                     2.23700600           1.24804800          -0.53345100         
H                     0.78608600           2.14611400          -0.10175000         
H                     1.00986000           1.57273000          -1.75493000         
