22
Number of gradient calls is 4
C                     2.66240600          -0.61977300          -0.38064800         
C                     1.52079500          -0.14770500           0.45868800         
C                     1.36164700           1.32185200           0.66343200         
C                    -0.26450200          -0.74689400          -0.77654600         
C                    -1.40420400          -0.22649600          -0.25457900         
C                    -2.15285800          -0.91822100           0.84149400         
C                    -1.91096000           1.12597600          -0.64909700         
H                     3.62640200          -0.44151300           0.11449300         
H                     2.59861200          -1.68977400          -0.58851900         
H                     1.29032300          -0.76438400           1.32231400         
H                     0.43740300           1.55383000           1.19456300         
H                     1.34426000           1.85358000          -0.29253100         
H                     2.19193400           1.73958700           1.24841500         
H                    -0.01092400          -1.78542000          -0.60017000         
H                     0.18981500          -0.28881400          -1.64779600         
H                    -3.21514800          -1.01481200           0.59576900         
H                    -2.10115600          -0.34349300           1.77391600         
H                    -1.75534300          -1.91435900           1.03781800         
H                    -2.94514300           1.06774400          -1.00445100         
H                    -1.30421900           1.57192800          -1.43746700         
H                    -1.91540800           1.81345300           0.20443700         
H                     2.69465000          -0.08999000          -1.33725700         
