7
Number of gradient calls is 1
C                     0.74461500          -0.00014200           0.04939200         
C                    -0.55854500           0.00066700          -0.23518100         
H                     1.29451600           0.92274900           0.18611200         
H                     1.29445300          -0.92380800           0.18109200         
H                    -1.51406800          -0.00445600           1.58964600         
H                    -1.09567800          -0.92072200          -0.42356200         
H                    -1.09564600           0.92308700          -0.41854900         
