19
Number of gradient calls is 4
C                    -1.72940000           0.95314200          -0.53731300         
C                    -0.75447200          -0.12225000          -0.17176000         
C                    -1.23582700          -1.10813600           0.84634500         
C                     0.52393000          -0.08465000          -0.63474700         
C                     1.52122000           1.45582200           0.73248900         
C                     1.53362100          -1.18782500          -0.45937800         
H                    -2.65912300           0.52923200          -0.92896100         
H                    -2.00358300           1.54511800           0.34405800         
H                    -1.38565200          -0.61928200           1.81670400         
H                    -0.54892200          -1.93981200           0.99268900         
H                    -2.20602500          -1.52053700           0.55475800         
H                     0.72068100           0.59557200          -1.45692700         
H                     1.51852400           0.91014800           1.66706000         
H                     0.84789100           2.30004000           0.66520900         
H                     2.47902600           1.56149700           0.23863200         
H                     1.58584100          -1.54182100           0.57044000         
H                     2.53016500          -0.84615000          -0.73762100         
H                     1.28839200          -2.04402400          -1.09427000         
H                    -1.32166000           1.63340200          -1.28558300         
