25
Number of gradient calls is 4
C                     2.73231700           0.11058700          -0.76693500         
C                     1.31029800          -0.08360200          -1.17816700         
C                    -0.08927200          -0.06953800           0.61993000         
C                     0.39212900          -1.36264800           1.23571200         
C                     0.46627000           1.16212200           1.29920000         
C                    -1.28321900           0.01581500          -0.05239200         
C                    -1.99421300          -1.16281600          -0.64221700         
C                    -1.86560600           1.35192200          -0.41914700         
H                     3.41309500           0.02477700          -1.62415100         
H                     3.05207400          -0.63912700          -0.03888300         
H                     2.89557100           1.09769900          -0.33028600         
H                     1.03513700          -1.06965500          -1.53681000         
H                     0.85278000           0.72716400          -1.73484400         
H                     1.46849700          -1.33230700           1.40830000         
H                     0.18214200          -2.23639700           0.62244000         
H                    -0.08490000          -1.51524000           2.20922900         
H                     1.50257800           1.00716400           1.59960800         
H                    -0.10480100           1.38930000           2.20560200         
H                     0.43335600           2.04213400           0.65726500         
H                    -2.01492000          -1.08647800          -1.73632800         
H                    -3.03885700          -1.18863100          -0.31629200         
H                    -1.54517100          -2.11923000          -0.38548300         
H                    -2.86522600           1.23946700          -0.84061100         
H                    -1.25322800           1.86369800          -1.17261300         
H                    -1.94034700           2.02460700           0.43794900         
