25
Number of gradient calls is 5
C                    -1.37712300           0.02026100           1.47651800         
C                    -1.18398000          -0.00550500           0.11606500         
C                    -1.47649500          -1.29189700          -0.62298600         
C                    -1.49907000           1.24442300          -0.67236900         
C                     1.03956300           0.00336000          -0.01781900         
C                     1.45693400          -1.05947300           0.95675300         
C                     1.39449300          -0.30639600          -1.44372400         
C                     1.39904900           1.39569700           0.41393000         
H                    -1.41366500           0.95500100           2.02222500         
H                    -1.39955000          -0.89307800           2.05779600         
H                    -1.10208100          -2.16301100          -0.08431100         
H                    -1.05127800          -1.29368100          -1.62628200         
H                    -2.55831300          -1.41018800          -0.73138900         
H                    -1.30194300           2.14606100          -0.09287300         
H                    -2.56009700           1.24560900          -0.93870800         
H                    -0.93562700           1.30111800          -1.60481200         
H                     2.55032600          -1.15743900           0.96006200         
H                     1.04737500          -2.03703000           0.69450800         
H                     1.14312000          -0.81500800           1.97216800         
H                     2.47573400          -0.17720300          -1.59021500         
H                     0.90020900           0.36211900          -2.15174600         
H                     1.15686400          -1.33606700          -1.71290200         
H                     2.48816900           1.48457200           0.52114500         
H                     0.95521100           1.63993700           1.38086900         
H                     1.08531300           2.14546400          -0.31374300         
