9
Number of gradient calls is 3
C                    -1.33922900           0.00000300           0.00000100         
C                     1.33922900          -0.00000200          -0.00000100         
H                    -1.62495900           0.96922600           0.39883300         
H                    -1.62496200          -0.13920000          -1.03878200         
H                    -1.62499500          -0.83001800           0.63993400         
H                     0.00000100           0.00001000           0.00000100         
H                     1.62496800           0.13872400           1.03884400         
H                     1.62501300           0.83030200          -0.63955900         
H                     1.62493600          -0.96905200          -0.39927100         
