16

C                     0.64969200           1.59578281           0.38980690         
C                     1.81946809           1.03579392           0.10178067         
C                     2.06000550          -0.38239019          -0.11314800         
C                     1.13274519          -1.33108701          -0.18539917         
H                     1.39635781          -2.36235985          -0.34771184         
H                     0.08193144          -1.11745770          -0.08912143         
H                     3.10177808          -0.65608552          -0.22810142         
H                     0.55626201           2.65844569           0.53599512         
H                    -0.25374305           1.01937521           0.49238860         
H                     2.69738646           1.66501506           0.02043911         
C                    -2.71252309           0.18927895          -0.30097635         
C                    -2.68014852          -1.06212221           0.10813313         
H                    -2.51625213           0.46086726          -1.32557953         
H                    -2.93854070           1.00327605           0.36892833         
H                    -2.46015820          -1.87667169          -0.56300102         
H                    -2.87350645          -1.33371694           1.13341443         
16

C                    -0.25923000           1.39154000           0.46742000         
C                     1.10828000           0.81151000           0.25221000         
C                     1.31337000          -0.44207000          -0.17808000         
C                     0.19791000          -1.40701000          -0.45672000         
H                     0.44329000          -2.38261000          -0.02191000         
H                     0.12593000          -1.54751000          -1.54178000         
H                     2.32890000          -0.79711000          -0.33508000         
H                    -0.29747000           2.40144000           0.04357000         
H                    -0.42716000           1.48899000           1.54658000         
H                     1.95976000           1.45587000           0.45659000         
C                    -1.37417000           0.54753000          -0.15566000         
C                    -1.15222000          -0.94158000           0.09507000         
H                    -1.41139000           0.73061000          -1.23723000         
H                    -2.34282000           0.85795000           0.25216000         
H                    -1.95844000          -1.52509000          -0.36375000         
H                    -1.19365000          -1.13656000           1.17440000         
16
Number of gradient calls is 4
C                    -0.43359900          -1.43109700           0.48844100         
C                    -1.31442100          -0.69926900          -0.28620400         
C                    -1.31441200           0.69928400          -0.28620200         
C                    -0.43358000           1.43109900           0.48844200         
H                    -0.12601900           1.07178600           1.46021400         
H                    -0.37621000           2.50611800           0.36751600         
H                    -1.86324600           1.20895500          -1.07162300         
H                    -0.37624100          -2.50611600           0.36751300         
H                    -0.12603200          -1.07178700           1.46021300         
H                    -1.86326100          -1.20893200          -1.07162600         
C                     1.55439800          -0.69361700          -0.22815900         
C                     1.55440400           0.69360200          -0.22816100         
H                     1.45773900          -1.23102200          -1.16060400         
H                     2.06938400          -1.22798300           0.56003300         
H                     1.45775100           1.23100500          -1.16060800         
H                     2.06939600           1.22796500           0.56003000         
