12

C                    -1.01289000          -1.78917000          -0.10414000         
C                    -0.25717000           0.48427000           0.05948000         
C                     1.05727000          -0.10601000           0.47560000         
C                     2.18614000           0.27479000          -0.11752000         
O                    -1.26202000          -0.39266000          -0.12004000         
O                    -0.43653000           1.65204000          -0.12679000         
H                     1.06298000          -0.87553000           1.24873000         
H                    -0.17468000          -2.05335000          -0.76798000         
H                    -1.92921000          -2.26354000          -0.47248000         
H                    -0.81409000          -2.15230000           0.91079000         
H                     2.16825000           1.03778000          -0.89846000         
H                     3.14762000          -0.15270000           0.16497000         
12

C                    -0.38329000          -1.41381000           0.03177000         
C                    -0.40602000           0.61010000           0.09066000         
C                     0.68720000          -0.39391000           0.45624000         
C                     1.98564000          -0.29107000          -0.32297000         
O                    -1.32856000          -0.34097000          -0.21076000         
O                    -0.51923000           1.78652000           0.02519000         
H                     0.86832000          -0.39122000           1.53895000         
H                     2.65380000          -1.12699000          -0.07915000         
H                    -0.16891000          -1.95723000          -0.89391000         
H                    -0.75038000          -2.09337000           0.80713000         
H                     1.79778000          -0.29375000          -1.40551000         
H                     2.49819000           0.64616000          -0.06695000         
12
DE: 107.15665976751076  DG: 103.53090987649777 DH: -3.13957934990439 (kcal/mol)
C                    -0.67627400          -1.53914300          -0.07011500         
C                    -0.45306800           0.64081800           0.06587100         
C                     0.82157000          -0.11639600           0.45241000         
C                     2.05258500          -0.05071500          -0.23599800         
O                    -1.38099000          -0.30154800          -0.10232200         
O                    -0.58600300           1.81408500          -0.04991700         
H                     0.86858100          -0.36013200           1.51659400         
H                     1.07214700          -1.13853900          -0.23792700         
H                    -0.67607700          -2.01103900          -1.06045300         
H                    -1.05530500          -2.19562600           0.71815800         
H                     2.07908700           0.29809300          -1.26548300         
H                     2.97863800          -0.30044100           0.27402100         
