12

C                     0.46322000          -1.85319000           0.26048000         
C                    -0.60782000           0.30935000           0.02488000         
C                     0.64891000           1.05374000           0.35867000         
C                     1.79397000           0.90050000          -0.30564000         
O                    -0.50719000          -0.99412000          -0.32527000         
O                    -1.66871000           0.85890000           0.00048000         
H                     0.51654000           1.84938000           1.09219000         
H                     0.84306000          -1.45050000           1.20485000         
H                     1.30216000          -2.02255000          -0.42379000         
H                    -0.04325000          -2.80954000           0.44820000         
H                     2.65265000           1.54256000          -0.10647000         
H                     1.89675000           0.15012000          -1.08957000         
12

C                     0.86891000          -1.27257000          -0.20694000         
C                    -0.70650000           0.35957000           0.10700000         
C                     0.61060000           0.91087000           0.62151000         
C                     1.57906000           0.08203000          -0.21740000         
O                    -0.52753000          -0.95760000          -0.16406000         
O                    -1.72632000           0.93427000          -0.10773000         
H                     0.65751000           1.99358000           0.48978000         
H                     0.69991000           0.66653000           1.68595000         
H                     1.05167000          -1.87480000          -1.10363000         
H                     1.13287000          -1.86523000           0.68039000         
H                     1.62345000           0.47858000          -1.23971000         
H                     2.59903000           0.02035000           0.17898000         
12
DE: 100.62240334402874  DG: 97.5940424970056 DH: -13.990439770554493 (kcal/mol)
C                     0.45816000          -1.70517300           0.03363000         
C                    -0.75481200           0.29460400           0.04460200         
C                     0.64634700           0.79299100           0.59636000         
C                     1.68611000           0.89623400          -0.35692500         
O                    -0.71052700          -1.06024100          -0.13912800         
O                    -1.68826600           0.97093700          -0.19526600         
H                     0.39858300           1.73192400           1.10935600         
H                     0.89055300          -0.20432700           1.14443700         
H                     1.01673800          -1.92650700          -0.87427900         
H                     0.46555700          -2.43740300           0.84172100         
H                     1.87983300           1.83434700          -0.87818200         
H                     2.32425800           0.04446200          -0.57390100         
