13

C                    -1.37547000          -0.48445000           0.03869000         
C                     0.98371000          -0.43709000           0.32866000         
C                    -1.70007000           0.89889000          -0.43593000         
C                    -0.98352000           1.55792000          -1.34927000         
O                    -0.06322000          -0.86822000          -0.37241000         
O                     0.66695000          -0.17163000           1.60943000         
O                     2.08416000          -0.33050000          -0.12573000         
H                     1.46051000           0.21224000           2.00925000         
H                    -2.05602000          -1.22379000          -0.40227000         
H                    -1.45612000          -0.54029000           1.13727000         
H                    -2.59872000           1.35061000          -0.00308000         
H                    -1.28442000           2.56016000          -1.67853000         
H                    -0.10624000           1.10946000          -1.81762000         
13

C                    -1.29422000          -0.76993000          -0.01579000         
C                     0.84828000          -0.19619000          -0.58529000         
C                    -1.07831000           0.69409000           0.38027000         
C                     0.01671000           1.08076000          -0.59070000         
O                     0.00676000          -1.23886000          -0.35627000         
O                    -0.48375000           0.78363000           1.65749000         
O                     2.02047000          -0.32867000          -0.73526000         
H                    -1.14370000           0.57299000           2.32261000         
H                    -1.96493000          -0.86712000          -0.87999000         
H                    -1.67807000          -1.37563000           0.81166000         
H                    -1.99229000           1.29704000           0.30039000         
H                     0.60756000           1.94395000          -0.26899000         
H                    -0.37463000           1.24039000          -1.60545000         
13
DE: 80.51197888797323  DG: 80.53394172048912 DH: -2.8150095602294503 (kcal/mol)
C                    -1.39662400          -0.76611800          -0.07138200         
C                     0.79109300          -0.08713800          -0.08911200         
C                    -1.20532900           0.71873300           0.07317400         
C                    -0.21647300           1.15520600          -0.83924100         
O                    -0.08017800          -1.20321100          -0.33414700         
O                     0.29903000           0.40420700           1.30704900         
O                     1.96681900          -0.18466700          -0.27878800         
H                     0.45717300          -0.30421100           1.95438200         
H                    -2.05401800          -1.00106700          -0.92248700         
H                    -1.81453900          -1.21689700           0.83840000         
H                    -1.80694300           1.33899600           0.73590200         
H                     0.16336200           2.17176400          -0.74549800         
H                    -0.26640900           0.75669300          -1.85425000         
