13

C                     0.79902000          -1.22752000           0.17878000         
C                    -1.07473000           0.12864000          -0.29611000         
C                     1.74956000          -0.35898000           0.94230000         
C                     2.02011000           0.90729000           0.63179000         
O                     0.04555000          -0.47563000          -0.76763000         
O                    -1.51719000           1.02948000          -1.16036000         
O                    -1.59252000          -0.10320000           0.75011000         
H                    -0.90213000           1.07908000          -1.89779000         
H                     0.10814000          -1.73914000           0.85756000         
H                     1.33644000          -1.98489000          -0.40747000         
H                     2.22080000          -0.83188000           1.80740000         
H                     1.54860000           1.38362000          -0.22593000         
H                     2.71672000           1.49651000           1.21452000         
13

C                     0.99013000          -1.13471000          -0.42293000         
C                    -0.73996000          -0.49504000           0.41831000         
C                     0.71119000          -0.06293000           0.64208000         
C                     0.94965000           1.39239000           0.26295000         
O                    -0.42454000          -1.41090000          -0.53910000         
O                     0.33585000           1.72366000          -0.95511000         
O                    -1.80641000          -0.20314000           0.83208000         
H                     0.78794000           1.28667000          -1.68297000         
H                     1.53913000          -2.01771000          -0.08508000         
H                     1.39774000          -0.77482000          -1.38166000         
H                     1.09205000          -0.29072000           1.64525000         
H                     2.02892000           1.60851000           0.26762000         
H                     0.47704000           2.02370000           1.02423000         
13
DE: 81.45324313798665  DG: 80.90793738250795 DH: 9.863288718929262 (kcal/mol)
C                     0.98095600          -1.28123700          -0.12057500         
C                    -0.83199200          -0.08987300           0.07409900         
C                     1.03563000          -0.09700700           0.79042600         
C                     1.20552600           1.15009600           0.14714000         
O                    -0.33604100          -1.08656000          -0.71647200         
O                    -0.39458600           1.29967200          -0.57521300         
O                    -1.86037900          -0.06936500           0.65103400         
H                    -0.43739000           1.21079100          -1.54367100         
H                     0.99194500          -2.24251800           0.40362200         
H                     1.72563800          -1.29491500          -0.92852400         
H                     1.08619200          -0.18958500           1.87138000         
H                     1.78248400           1.22229400          -0.78086700         
H                     1.23845500           2.05208400           0.75673500         
