13

C                    -1.32158000          -0.56420000           0.43471000         
C                     0.98745000          -0.44377000          -0.07579000         
C                    -1.77260000           0.66490000          -0.31091000         
C                    -1.14840000           1.84174000          -0.21310000         
O                    -0.15702000          -1.10665000          -0.21656000         
O                     1.15009000           0.03409000           1.17562000         
O                     1.79589000          -0.30302000          -0.94107000         
H                     2.01039000           0.47177000           1.18773000         
H                    -2.06781000          -1.36126000           0.39189000         
H                    -1.08777000          -0.34419000           1.48062000         
H                    -2.58528000           0.54145000          -1.03379000         
H                    -0.32615000           1.99182000           0.48547000         
H                    -1.44806000           2.68755000          -0.83174000         
13

C                    -1.47914000          -0.77227000           0.30969000         
C                     0.43240000          -0.04776000          -0.68851000         
C                    -1.65272000           0.66257000          -0.08927000         
C                    -0.53451000           1.08339000          -0.67491000         
O                    -0.20629000          -1.13605000          -0.18999000         
O                     1.25272000           0.39355000           1.87718000         
O                     1.57328000          -0.07345000          -1.04663000         
H                     1.80942000          -0.28201000           1.45688000         
H                    -2.24565000          -1.43678000          -0.10946000         
H                    -1.47153000          -0.87293000           1.40515000         
H                    -2.55242000           1.23862000           0.11149000         
H                     1.69025000           1.21613000           1.66099000         
H                    -0.30062000           2.06174000          -1.08167000         
13
DE: 86.23549303750468  DG: 82.378819650504 DH: 3.807361376673055 (kcal/mol)
C                    -1.46699000          -0.79005700           0.24648900         
C                     0.75565600          -0.18707300          -0.27027600         
C                    -1.64875600           0.64480200          -0.18098200         
C                    -0.50329200           1.31732000          -0.27305200         
O                    -0.14283300          -1.16894000          -0.09967200         
O                     1.16767700           0.27724600           1.26239800         
O                     1.66468800          -0.16963300          -1.03338500         
H                     2.08795200           0.56537000           1.17349500         
H                    -2.14605300          -1.46773600          -0.28176400         
H                    -1.61961000          -0.91398400           1.33005100         
H                    -2.64484000           1.01579400          -0.43163200         
H                     0.40507200           1.06289600           0.74187900         
H                    -0.41848600           2.31832600          -0.69983200         
