13

C                     1.21583000          -0.86000000           0.24623000         
C                    -1.04109000          -0.17490000           0.22566000         
C                     1.98823000           0.37910000          -0.10314000         
C                     1.48361000           1.46458000          -0.68415000         
O                    -0.06707000          -0.88861000          -0.37064000         
O                    -2.10182000          -0.10691000          -0.57816000         
O                    -0.97766000           0.32900000           1.30146000         
H                    -1.90419000          -0.58705000          -1.39111000         
H                     1.09407000          -0.93063000           1.33510000         
H                     1.73526000          -1.75536000          -0.11253000         
H                     3.04064000           0.36620000           0.20900000         
H                     0.44606000           1.52127000          -1.00556000         
H                     2.10700000           2.33369000          -0.87629000         
13

C                     1.40561000          -1.09254000           0.01238000         
C                    -0.55838000           0.18429000           0.05019000         
C                     1.73283000           0.32057000          -0.38526000         
C                     0.61701000           1.04146000          -0.38902000         
O                    -0.00205000          -1.11531000           0.15360000         
O                    -1.62149000           0.17126000          -0.82442000         
O                    -1.09549000           0.61568000           1.24862000         
H                    -1.36762000          -0.39172000          -1.56221000         
H                     1.89373000          -1.37372000           0.96005000         
H                     1.71464000          -1.82392000          -0.74229000         
H                     2.73912000           0.66258000          -0.62253000         
H                    -0.38485000           0.63888000           1.89256000         
H                     0.49107000           2.09609000          -0.62151000         
13
DE: 82.72457738498711  DG: 80.08401740901931 DH: 10.443833652007648 (kcal/mol)
C                     1.25383400          -0.98955100           0.24816400         
C                    -0.87233200          -0.04533900           0.07731400         
C                     1.78873800           0.33819800          -0.25933200         
C                     0.89100400           1.31272000          -0.40803300         
O                    -0.11738000          -1.09380300          -0.17148000         
O                    -1.92236900           0.03460700          -0.69490300         
O                    -0.90972700           0.54484700           1.22748400         
H                    -1.78079900          -0.52378700          -1.47232800         
H                     1.29077200          -1.06023900           1.34462700         
H                     1.75463400          -1.85653600          -0.18974400         
H                     2.86217800           0.38539100          -0.47270900         
H                    -0.10954700           1.20162200           0.77723700         
H                     1.21110800           2.27217900          -0.82457300         
