13

C                    -0.80190000           1.19401000           0.28118000         
C                     1.17591000          -0.16673000           0.03700000         
C                    -1.97744000           0.26652000           0.12652000         
C                    -2.02435000          -0.75042000          -0.73362000         
O                     0.34124000           0.78554000          -0.45140000         
O                     0.64317000          -0.97609000           0.96233000         
O                     2.29599000          -0.25984000          -0.33995000         
H                    -0.32392000          -0.96628000           0.93655000         
H                    -0.54832000           1.32459000           1.34474000         
H                    -1.06606000           2.18248000          -0.11357000         
H                    -2.83781000           0.49015000           0.76128000         
H                    -2.90821000          -1.38180000          -0.80921000         
H                    -1.18259000          -0.97106000          -1.39325000         
13

C                    -0.79895000           1.25103000           0.11978000         
C                     1.04842000          -0.05887000           0.00718000         
C                    -1.17688000          -0.19097000           0.47537000         
C                    -1.93094000          -0.91532000          -0.62216000         
O                     0.50364000           1.10075000          -0.42692000         
O                     0.11384000          -0.78510000           0.65679000         
O                     2.17377000          -0.38385000          -0.15889000         
H                    -1.98041000          -1.98651000          -0.40355000         
H                    -0.74879000           1.90073000           1.00208000         
H                    -1.45645000           1.69566000          -0.63373000         
H                    -1.70627000          -0.25574000           1.43119000         
H                    -2.95121000          -0.51772000          -0.70011000         
H                    -1.42223000          -0.77656000          -1.58624000         
13
DE: 61.21919931049356  DG: 58.489532985501036 DH: -8.884082217973216 (kcal/mol)
C                    -0.68550600           1.28905800           0.19564900         
C                     1.15862100          -0.15528500           0.05752400         
C                    -1.51735400           0.04429700           0.35017900         
C                    -1.75692300          -0.87480600          -0.67343300         
O                     0.52140300           0.99315600          -0.43944100         
O                     0.35768200          -0.85738800           0.80787000         
O                     2.27972100          -0.37672300          -0.28276000         
H                    -0.70771000          -1.30686300          -0.08027300         
H                    -0.52022600           1.74372900           1.18129800         
H                    -1.23580200           1.99961400          -0.43821800         
H                    -2.01085600          -0.10544600           1.31237300         
H                    -2.56297400          -1.59692600          -0.55683800         
H                    -1.42590900          -0.62604800          -1.68321600         
