17

C                     2.60375000          -1.48298000          -0.50769000         
C                     2.24359000           2.37223000           0.22320000         
C                     2.68163000           0.02554000          -0.57313000         
C                     2.22155000           0.87412000           0.35093000         
O                     1.46979000          -1.99300000           0.16247000         
H                     1.53935000          -1.82515000           1.10404000         
H                     3.53189000          -1.88620000          -0.06821000         
H                     2.55060000          -1.87718000          -1.53033000         
H                     3.16929000           0.43241000          -1.46264000         
H                     1.75529000           0.47507000           1.25235000         
H                     1.35553000           2.72113000          -0.31369000         
H                     2.24031000           2.85413000           1.21089000         
H                     3.13314000           2.71517000          -0.33775000         
S                    -0.63376000          -0.22242000           0.04454000         
Cl                   -2.46695000          -1.22975000          -0.27001000         
Cl                   -1.34301000           1.76390000          -0.34247000         
O                    -0.40320000          -0.29972000           1.47682000         
17

C                     2.51894000          -1.55394000          -0.18393000         
C                     1.69246000           2.28670000           0.02712000         
C                     2.54088000          -0.05323000          -0.08500000         
C                     1.50610000           0.79748000          -0.05009000         
O                     1.22592000          -2.09584000          -0.28617000         
H                     0.87502000          -2.36487000           0.57294000         
H                     3.07924000          -1.98124000           0.66818000         
H                     3.06815000          -1.84019000          -1.09089000         
H                     3.54615000           0.38021000          -0.05056000         
H                     0.54347000           0.13649000           1.81584000         
H                     1.28977000           2.78311000          -0.86411000         
H                     1.17068000           2.71299000           0.89311000         
H                     2.76185000           2.51618000           0.10641000         
S                    -0.22417000          -0.00582000          -0.18227000         
Cl                   -2.32599000          -1.22086000          -0.05149000         
Cl                   -1.25476000           1.78397000          -0.25629000         
O                    -0.17439000          -0.37933000           1.41317000         
17
DE: 49.59709586090898  DG: 59.98865318106846 DH: TCIT fail (kcal/mol)
C                     2.43284500          -1.53051000          -0.47340800         
C                     1.77244800           2.26473900           0.23619400         
C                     2.54658300          -0.04562400          -0.26916800         
C                     1.57185100           0.77430300           0.16358300         
O                     1.21410500          -2.08451700          -0.03190700         
H                     1.19757300          -2.10509600           0.93108900         
H                     3.29507400          -2.03591600          -0.00742100         
H                     2.50042300          -1.74253300          -1.55066400         
H                     3.53153600           0.36727700          -0.52836800         
H                     0.71205400           0.20830400           1.17895800         
H                     1.26662200           2.76153000          -0.60217500         
H                     1.34401600           2.68360300           1.15593400         
H                     2.84029300           2.52326800           0.19673600         
S                    -0.53159500          -0.12457700          -0.12839900         
Cl                   -2.43281300          -1.20508900          -0.10247000         
Cl                   -1.39362900           1.77138800          -0.35293000         
O                    -0.34847100          -0.29945000           1.41676900         
