17

C                    -2.26696000           1.23206000           0.05917000         
C                     0.75565000           3.23806000          -1.41696000         
C                    -1.39952000           2.09117000          -0.81232000         
C                    -0.15762000           2.46801000          -0.50501000         
O                    -1.60444000           0.93036000           1.26619000         
H                    -2.00205000           0.10887000           1.64732000         
H                    -2.50231000           0.31498000          -0.50731000         
H                    -3.22596000           1.74032000           0.24157000         
H                    -1.83378000           2.36633000          -1.77324000         
H                     0.24079000           2.16887000           0.47750000         
H                     0.22776000           3.63293000          -2.29054000         
H                     1.21785000           4.07888000          -0.88094000         
H                     1.57664000           2.59660000          -1.79219000         
S                     0.49258000          -0.55815000          -0.29722000         
Cl                   -0.92026000          -2.08877000           0.29112000         
Cl                    1.96128000          -0.98432000           1.18145000         
O                     1.04302000          -0.94193000          -1.57718000         
17

C                    -2.40726000           1.34174000           0.14476000         
C                     0.67245000           1.87681000          -0.71568000         
C                    -1.37962000           0.45374000          -0.55578000         
C                     0.01802000           0.71025000           0.00439000         
O                    -2.44296000           1.10118000           1.52321000         
H                    -2.73526000           0.18696000           1.66165000         
H                    -3.38648000           1.19619000          -0.33847000         
H                    -2.11838000           2.38686000           0.00235000         
H                    -1.39917000           0.60748000          -1.63439000         
H                    -0.06263000           0.84741000           1.09545000         
H                     0.94904000           1.56640000          -1.73654000         
H                    -0.04056000           2.72576000          -0.76706000         
H                     1.57341000           2.20951000          -0.17790000         
S                     1.05584000          -0.80496000          -0.18725000         
Cl                   -1.92469000          -1.25999000          -0.31497000         
Cl                    2.70141000           0.02654000           0.97147000         
O                     1.41232000          -0.82235000          -1.62279000         
17
DE: 12.977523969479765  DG: 27.03624680765469 DH: -22.225860420650093 (kcal/mol)
C                    -2.34478900           1.14035400           0.42112400         
C                     1.07870400           1.93309300          -1.27457500         
C                    -1.25230000           1.24404900          -0.59316100         
C                     0.06461600           1.48694600          -0.25619900         
O                    -1.88615300           0.64921000           1.64308900         
H                    -1.85040800          -0.31371300           1.52466200         
H                    -3.16319800           0.53723900           0.00450900         
H                    -2.73104800           2.16442100           0.57362500         
H                    -1.52783500           1.18779600          -1.65033700         
H                     0.26497800           1.67509600           0.80319800         
H                     0.84592500           1.52975200          -2.26662800         
H                     1.07444200           3.03012800          -1.32806900         
H                     2.08538400           1.61403700          -0.97957500         
S                     0.62579700          -0.69681400          -0.05402700         
Cl                   -1.59723800          -1.71241400          -0.35346500         
Cl                    2.50597700          -0.16984200           1.06105400         
O                     1.16903400          -1.03721500          -1.34672600         
