17

C                     3.36703000          -0.89778000          -0.10989000         
C                     1.84049000           2.70786000          -0.18375000         
C                     3.08745000           0.55014000           0.19232000         
C                     2.21198000           1.28835000          -0.49023000         
O                     2.80924000          -1.33672000          -1.32579000         
H                     3.21150000          -0.82176000          -2.03032000         
H                     2.92769000          -1.52212000           0.67876000         
H                     4.45952000          -1.08089000          -0.07492000         
H                     3.61175000           0.97759000           1.05340000         
H                     1.69558000           0.81399000          -1.33082000         
H                     2.30210000           3.04911000           0.74846000         
H                     2.15879000           3.38197000          -0.99109000         
H                     0.75024000           2.80292000          -0.09561000         
S                    -1.44857000          -0.14991000          -0.48286000         
Cl                   -0.21560000          -0.43341000           1.19585000         
Cl                   -3.22650000          -0.87235000           0.42884000         
O                    -1.60172000           1.27488000          -0.68853000         
17

C                     2.77239000          -1.01730000          -0.34753000         
C                     1.18952000           2.47655000           0.54023000         
C                     2.44308000           0.44839000          -0.30516000         
C                     1.55800000           1.02907000           0.50933000         
O                     1.99600000          -1.71108000          -1.31371000         
H                     2.20413000          -1.34839000          -2.18089000         
H                     2.54449000          -1.47851000           0.61800000         
H                     3.84790000          -1.14879000          -0.54191000         
H                     2.93272000           1.10642000          -1.02727000         
H                    -0.39028000          -0.59992000          -0.67860000         
H                     1.36984000           2.88693000           1.54423000         
H                     1.78300000           3.03341000          -0.19359000         
H                     0.12351000           2.57995000           0.30536000         
S                    -1.54853000          -0.06729000          -1.19482000         
Cl                    0.68528000           0.06919000           1.69023000         
Cl                   -2.65789000          -1.01386000           0.37659000         
O                    -1.47047000           1.39062000          -0.97855000         
17
DE: 58.89804166996841  DG: 69.0856584026434 DH: 8.263145315487566 (kcal/mol)
C                     3.19811700          -0.98108400          -0.18979600         
C                     1.01515900           2.23664000           0.10134100         
C                     2.70485300           0.37655700           0.16667100         
C                     1.32343300           0.76097700           0.00916700         
O                     2.40454700          -1.64026800          -1.13926800         
H                     2.51300200          -1.19960000          -1.98712100         
H                     3.18727700          -1.60964700           0.71920100         
H                     4.25744000          -0.91798800          -0.49572900         
H                     3.40432700           1.09326000           0.60375300         
H                     0.84316200           0.27873900          -0.86290900         
H                     1.39681600           2.65047000           1.04235500         
H                     1.48677300           2.75642600          -0.74315600         
H                    -0.07089200           2.38451200           0.04177000         
S                    -1.72214100           0.01772400          -0.91459300         
Cl                    0.48039400          -0.14492500           1.38461300         
Cl                   -3.00709300          -0.96682100           0.45747300         
O                    -1.89944000           1.49293900          -0.80128700         
