17

C                    -2.93684000          -0.49733000           0.22104000         
C                    -0.13653000          -0.21600000           2.94908000         
C                    -1.96153000           0.02863000           1.23461000         
C                    -1.05315000          -0.71083000           1.87397000         
O                    -3.05468000           0.33922000          -0.90602000         
H                    -2.18773000           0.36273000          -1.32281000         
H                    -3.94052000          -0.54010000           0.67057000         
H                    -2.65807000          -1.52947000          -0.05067000         
H                    -2.05911000           1.09573000           1.46664000         
H                    -0.97389000          -1.77224000           1.61403000         
H                     0.91197000          -0.42345000           2.70525000         
H                    -0.25127000           0.86403000           3.09869000         
H                    -0.36035000          -0.72085000           3.90131000         
S                     1.11943000           0.21175000          -1.36917000         
Cl                    1.68092000          -1.46317000          -0.21466000         
Cl                    1.24090000           1.64457000           0.17157000         
O                    -0.27747000           0.05574000          -1.73480000         
17

C                    -2.65055000          -0.38443000           0.06964000         
C                    -0.15296000          -0.09238000           2.72873000         
C                    -1.28028000           0.07969000           0.53590000         
C                    -0.72116000          -0.69851000           1.68248000         
O                    -3.10807000           0.38372000          -1.00203000         
H                    -2.44420000           0.33350000          -1.69913000         
H                    -3.35576000          -0.25734000           0.90167000         
H                    -2.59167000          -1.45972000          -0.17440000         
H                    -1.29128000           1.15653000           0.74125000         
H                    -0.76925000          -1.78690000           1.61831000         
H                     1.39404000          -0.04409000           0.74107000         
H                    -0.08326000           0.99761000           2.77257000         
H                     0.25778000          -0.66484000           3.55905000         
S                     1.14766000           0.10797000          -0.58093000         
Cl                    1.53228000          -2.13769000          -0.64261000         
Cl                    0.94648000           2.33730000          -0.02996000         
O                    -0.44055000          -0.10523000          -0.66320000         
17
DE: 27.311095968531475  DG: 39.19738091762679 DH: TCIT fail (kcal/mol)
C                    -2.75536000          -0.49097700          -0.01399400         
C                     0.40242800          -0.14326600           2.13654200         
C                    -1.58164000           0.03797100           0.75208300         
C                    -0.77461800          -0.72840500           1.56715600         
O                    -3.07203600           0.32975600          -1.09849300         
H                    -2.28660700           0.39093800          -1.65220000         
H                    -3.62767800          -0.49698200           0.65632700         
H                    -2.55397000          -1.53432300          -0.30842900         
H                    -1.49047200           1.12687100           0.79037100         
H                    -0.89976500          -1.81238500           1.58719000         
H                     1.15191800          -0.09631300           1.21001900         
H                     0.34522400           0.92332700           2.37926700         
H                     0.95383300          -0.75420800           2.85631000         
S                     1.19756600           0.16038000          -0.61915300         
Cl                    1.50985900          -2.10746700          -0.46922300         
Cl                    1.09030900           2.38192100          -0.02467400         
O                    -0.26561900           0.04141200          -0.88486700         
