17

C                    -2.11336000           1.79637000          -0.65281000         
C                    -2.60519000          -1.86152000           0.68115000         
C                    -2.27718000           0.57174000           0.20085000         
C                    -2.48150000          -0.67795000          -0.23429000         
O                    -1.00872000           2.57710000          -0.22215000         
H                    -1.19551000           2.89571000           0.66402000         
H                    -3.03557000           2.39759000          -0.63887000         
H                    -1.92305000           1.51626000          -1.69562000         
H                    -2.21114000           0.74534000           1.28555000         
H                    -2.54808000          -0.86159000          -1.30759000         
H                    -2.08591000          -2.72842000           0.25818000         
H                    -2.16642000          -1.63860000           1.65938000         
H                    -3.65634000          -2.14253000           0.82613000         
S                     0.69805000           0.21099000           0.09185000         
Cl                    2.81408000           0.39509000          -0.00209000         
Cl                    0.62556000          -1.78355000          -0.69771000         
O                     0.38962000           0.15367000           1.50611000         
17

C                    -1.84329000           1.62782000          -0.89217000         
C                    -2.16595000          -1.86971000           0.91451000         
C                    -1.49732000           0.32076000          -0.23251000         
C                    -2.39600000          -0.56274000           0.21690000         
O                    -1.25407000           2.69359000          -0.18037000         
H                    -1.67529000           2.75524000           0.68188000         
H                    -2.93576000           1.72627000          -0.98731000         
H                    -1.41565000           1.66567000          -1.90281000         
H                    -0.60945000           0.16949000           1.78818000         
H                    -3.44653000          -0.30691000           0.03474000         
H                    -2.38072000          -2.69583000           0.22258000         
H                    -1.13772000          -1.99495000           1.26676000         
H                    -2.85691000          -1.96818000           1.76126000         
S                     0.39021000           0.29677000          -0.09630000         
Cl                    2.74525000           0.18846000           0.27179000         
Cl                    0.51074000          -1.62591000          -0.88656000         
O                     0.32149000           0.25974000           1.53132000         
17
DE: 51.69925268602335  DG: 61.679163774080706 DH: TCIT fail (kcal/mol)
C                    -1.80547400           1.70386100          -0.70192500         
C                    -2.32907800          -1.94208600           0.66075000         
C                    -1.58642900           0.37078300          -0.03971300         
C                    -2.51407600          -0.60094800           0.02424600         
O                    -0.92294800           2.67155000          -0.16214700         
H                    -1.14959300           2.80345500           0.76342100         
H                    -2.85897000           2.02305800          -0.62898800         
H                    -1.55870500           1.64161800          -1.77078300         
H                    -0.73029200           0.33099700           1.11811400         
H                    -3.51109000          -0.40812200          -0.39743500         
H                    -2.34286600          -2.73179700          -0.10519000         
H                    -1.37987000          -2.00715300           1.20157300         
H                    -3.15585300          -2.15001700           1.35347300         
S                     0.64863000           0.23231200          -0.09436900         
Cl                    2.81694600           0.36425900           0.13195100         
Cl                    0.69297400          -1.76650800          -0.71953900         
O                     0.42930300           0.25714200           1.45021800         
