17

C                    -0.16132000           2.34723000           1.20426000         
C                    -3.22444000           0.61447000          -0.49525000         
C                    -1.43760000           1.59591000           0.97657000         
C                    -1.96922000           1.38564000          -0.23062000         
O                     0.78280000           1.45436000           1.78534000         
H                     1.62919000           1.90223000           1.87381000         
H                    -0.34118000           3.19835000           1.88526000         
H                     0.20912000           2.73942000           0.24463000         
H                    -1.92232000           1.18130000           1.86167000         
H                    -1.44626000           1.78597000          -1.10390000         
H                    -3.67622000           0.25486000           0.43578000         
H                    -3.96083000           1.23480000          -1.02490000         
H                    -3.00722000          -0.25248000          -1.13548000         
S                     0.60293000          -0.77005000           0.36916000         
Cl                    1.33051000           0.49033000          -1.21846000         
Cl                   -0.35226000          -2.18372000          -0.94792000         
O                     1.75795000          -1.43072000           0.93007000         
17

C                    -0.50090000           1.14234000           1.30695000         
C                    -3.13634000           1.28008000          -1.57520000         
C                    -1.69071000           0.85257000           0.44365000         
C                    -1.96830000           1.53879000          -0.66687000         
O                     0.61550000           0.23833000           1.10974000         
H                     2.37317000           1.31377000          -0.06165000         
H                    -0.75283000           1.04464000           2.36940000         
H                    -0.10507000           2.14303000           1.10915000         
H                    -2.31447000          -0.01550000           0.72361000         
H                    -1.34473000           2.39880000          -0.94220000         
H                    -3.55418000           0.28067000          -1.44409000         
H                    -3.92053000           2.01434000          -1.35630000         
H                    -2.85515000           1.42903000          -2.62555000         
S                     0.55820000          -0.93585000          -0.05059000         
Cl                    2.06382000           1.75067000          -1.22933000         
Cl                   -0.84871000          -2.25748000           0.98205000         
O                     1.87207000          -1.53960000           0.04109000         
17
DE: 15.193260014021394  DG: 27.766040356095626 DH: -10.760516252390069 (kcal/mol)
C                    -0.23958000           1.82237600           1.25585800         
C                    -3.08624900           0.48628300          -1.02989400         
C                    -1.49327400           1.15851100           0.78681300         
C                    -1.89352000           1.20521300          -0.48820300         
O                     0.73336400           0.79069900           1.56430300         
H                     1.61777100           1.14686400           1.37432500         
H                    -0.39785700           2.39868600           2.17610900         
H                     0.17106200           2.46791800           0.47106200         
H                    -2.05138300           0.56780700           1.51737700         
H                    -1.28949000           1.77771000          -1.20054200         
H                    -3.63247100          -0.03227000          -0.23469700         
H                    -3.76457400           1.18317300          -1.54002200         
H                    -2.76630600          -0.26192000          -1.76829800         
S                     0.76874800          -0.70536400          -0.09659000         
Cl                    1.97986900           1.04169100          -1.15720500         
Cl                   -0.85608600          -2.24863400           0.11172300         
O                     1.88972300          -1.47550300           0.35768000         
