13

C                     0.81214000           0.93027000           0.32411000         
C                    -2.68061000           0.00162000          -0.26765000         
C                    -1.22738000          -0.16571000           0.06446000         
C                     1.63607000          -0.08615000          -0.44244000         
O                    -0.53923000           0.97977000          -0.11063000         
O                    -0.69980000          -1.17046000           0.45725000         
O                     2.69874000          -0.46963000          -0.04865000         
H                     0.88048000           0.69435000           1.39380000         
H                     1.22456000           1.93004000           0.14216000         
H                     1.20394000          -0.41108000          -1.41652000         
H                    -3.16921000          -0.97407000          -0.25351000         
H                    -2.78670000           0.48072000          -1.24432000         
H                    -3.13857000           0.66266000           0.47752000         
13

C                     0.82323000           0.83317000           0.05327000         
C                    -2.79304000           0.19196000          -0.04038000         
C                    -1.34377000          -0.20830000          -0.02485000         
C                     1.63297000          -0.22811000          -0.03760000         
O                    -0.55655000           0.88465000          -0.03311000         
O                    -0.92918000          -1.33271000          -0.00401000         
O                     2.97838000          -0.13659000           0.06778000         
H                     3.23598000           0.77712000           0.21207000         
H                     1.22064000           1.83880000           0.20161000         
H                     1.28337000          -1.24555000          -0.18643000         
H                    -3.41082000          -0.70651000          -0.09912000         
H                    -2.98450000           0.84989000          -0.89649000         
H                    -3.02322000           0.75540000           0.87200000         
13
DE: 67.49805936751402  DG: 64.61779076250936 DH: 13.777963671128118 (kcal/mol)
C                    -0.88094700          -0.88184500           0.03265400         
C                     2.67251100          -0.05426000           0.10479700         
C                     1.19434900           0.18350300           0.00275600         
C                    -1.65615700           0.24012200          -0.41350200         
O                     0.51220200          -0.95983100          -0.12265100         
O                     0.65328100           1.25986600           0.02990300         
O                    -2.68796600           0.30705500           0.31286400         
H                    -2.03287200          -0.53863900           0.96275100         
H                    -1.33303600          -1.82801000          -0.27796300         
H                    -1.51243800           0.95224600          -1.23073600         
H                     2.98514100          -0.78575200          -0.64772400         
H                     2.89313300          -0.47454300           1.09423100         
H                     3.20139700           0.89285200          -0.02170800         
