13

C                     0.88006000           0.76213000           0.37885000         
C                    -2.26699000          -1.07752000          -0.00007000         
C                    -1.35416000           0.11324000           0.02174000         
C                     2.19246000           0.17982000          -0.08217000         
O                    -0.11043000          -0.24105000           0.40095000         
O                    -1.65443000           1.23715000          -0.26917000         
O                     2.35215000          -0.95267000          -0.43187000         
H                     1.01368000           1.19972000           1.38115000         
H                     0.58802000           1.58192000          -0.29375000         
H                     3.02989000           0.91699000          -0.07892000         
H                    -2.17909000          -1.63171000           0.94321000         
H                    -1.94687000          -1.74963000          -0.80987000         
H                    -3.29379000          -0.74094000          -0.16968000         
13

C                     1.01748000           0.36275000          -0.11693000         
C                    -2.37554000          -0.93198000           0.39273000         
C                    -1.32550000           0.06018000          -0.01724000         
C                     2.22551000           0.16787000           0.67887000         
O                    -0.08374000          -0.43139000           0.21326000         
O                    -1.52700000           1.14934000          -0.47298000         
O                     2.07872000          -0.34727000          -0.64396000         
H                     2.19543000          -0.58139000           1.46807000         
H                     0.73811000           1.30256000          -0.58838000         
H                     2.94954000           0.97813000           0.80106000         
H                    -2.33433000          -1.06966000           1.48058000         
H                    -2.16267000          -1.89789000          -0.07525000         
H                    -3.35930000          -0.55250000           0.09418000         
13
DE: 90.37329068050899  DG: 87.79108908800086 DH: 14.114005736137667 (kcal/mol)
C                     0.86455300           0.66979100           0.22279900         
C                    -2.28024000          -1.06122000           0.07308500         
C                    -1.41474200           0.14483200          -0.02625800         
C                     2.29123000           0.22189200           0.18727700         
O                    -0.07806400          -0.22117700           0.27546100         
O                    -1.69531000           1.26094600          -0.30431800         
O                     2.35974700          -0.89967100          -0.45924500         
H                     2.70019200           0.30975800           1.23972900         
H                     0.51956800           1.67678700          -0.04886200         
H                     2.73946000           1.12913800          -0.32668500         
H                    -2.18379400          -1.48966900           1.07792600         
H                    -1.91631900          -1.81256800          -0.63885000         
H                    -3.31489200          -0.78599900          -0.13985500         
