13

C                     0.83360000           0.99905000           0.03196000         
C                    -2.64547000          -0.15699000          -0.11651000         
C                    -1.19152000          -0.11159000           0.25592000         
C                     1.54475000          -0.18699000          -0.58968000         
O                    -0.55841000           0.95998000          -0.25313000         
O                    -0.61883000          -0.92998000           0.92021000         
O                     2.63634000          -0.54155000          -0.27100000         
H                     1.02630000           0.99822000           1.11164000         
H                     1.21324000           1.92189000          -0.41842000         
H                     0.96957000          -0.69750000          -1.40262000         
H                    -2.95950000           0.76095000          -0.62624000         
H                    -3.23228000          -0.30782000           0.79690000         
H                    -2.80659000          -1.02800000          -0.76670000         
13

C                     0.79123000           1.19956000          -0.07469000         
C                    -2.38395000          -0.37641000           0.16976000         
C                    -1.04512000          -0.03651000          -0.41417000         
C                     1.13432000          -0.27843000           0.07925000         
O                    -0.61177000           1.22837000           0.00639000         
O                    -0.03582000          -0.94458000           0.03897000         
O                     2.20290000          -0.78468000           0.19095000         
H                     1.23878000           1.79031000           0.72887000         
H                     1.16829000           1.55999000          -1.04603000         
H                    -1.05875000          -0.08790000          -1.51640000         
H                    -3.12195000           0.35682000          -0.17321000         
H                    -2.31739000          -0.34229000           1.26232000         
H                    -2.69087000          -1.37855000          -0.14995000         
13
DE: 69.10511119702295  DG: 68.87732524852734 DH: 1.4402485659655857 (kcal/mol)
C                     0.84730500           1.24176100           0.09328400         
C                    -2.24165800          -0.48948400          -0.30262700         
C                    -0.83699400          -0.11737500           0.00974500         
C                     1.16213600          -0.23636100          -0.19445600         
O                    -0.55257200           1.22883400          -0.02334100         
O                    -0.11083000          -0.77608100           0.85123700         
O                     2.11583300          -0.90937500          -0.31990700         
H                     1.18541000           1.43291300           1.11921700         
H                     1.28615600           1.94486500          -0.62143400         
H                     0.07361600          -0.36688300          -1.13363300         
H                    -2.83059900          -0.34399500           0.61341300         
H                    -2.27974400          -1.54756900          -0.57589400         
H                    -2.63903000           0.14240200          -1.10124500         
