13

C                     0.94999000          -0.51613000          -0.70297000         
C                    -2.60142000          -0.32399000           0.20078000         
C                    -1.24147000           0.16981000          -0.19087000         
C                     1.65695000          -0.28400000           0.62035000         
O                    -0.40596000          -0.86557000          -0.45109000         
O                    -0.89710000           1.31374000          -0.26517000         
O                     2.55180000           0.46975000           0.78322000         
H                     1.05303000           0.37983000          -1.31821000         
H                     1.41388000          -1.37518000          -1.20309000         
H                     1.19611000          -0.87387000           1.48384000         
H                    -3.20515000           0.54307000           0.48499000         
H                    -2.49351000          -1.04068000           1.01440000         
H                    -3.06646000          -0.83844000          -0.65882000         
13

C                     0.98970000          -0.30364000          -0.94468000         
C                    -2.39639000          -0.46554000           0.47116000         
C                    -0.35700000           0.20237000          -0.49332000         
C                     2.02144000          -0.21863000           0.16491000         
O                    -1.10612000          -0.80719000          -0.03261000         
O                    -0.70538000           1.34590000          -0.52999000         
O                     1.79600000           0.22775000           1.25211000         
H                     1.35363000           0.30190000          -1.78429000         
H                     0.92879000          -1.34454000          -1.28022000         
H                     3.04258000          -0.58466000          -0.11865000         
H                    -3.12762000          -0.50891000          -0.33821000         
H                    -2.38498000           0.53468000           0.89581000         
H                    -2.63545000          -1.21064000           1.23105000         
13
DE: 130.17308071800596  DG: 121.1702019215144 DH: 3.0540152963671177 (kcal/mol)
C                     1.58098500          -0.42706800          -1.01775300         
C                    -2.92588400          -0.42323200           0.59203000         
C                    -0.79428700           0.33628300          -0.34005600         
C                     2.01813400          -0.45807800           0.35052400         
O                    -0.75663500          -0.83554300          -0.26570200         
O                    -0.80817500           1.48266900          -0.43351500         
O                     2.13247400           0.52710700           1.06540800         
H                     1.54738800           0.53640400          -1.52807100         
H                     1.54526500          -1.34378900          -1.60266400         
H                     2.22923700          -1.47306500           0.75725800         
H                    -3.44152300           0.11227500          -0.20337800         
H                    -2.68929800           0.11234100           1.50988800         
H                    -3.00606400          -1.50545200           0.62896900         
