13

C                     0.89075000          -0.55845000           0.36679000         
C                    -2.45043000           0.90466000           0.17204000         
C                    -1.42660000          -0.17545000          -0.02688000         
C                     1.87403000           0.53617000          -0.00388000         
O                    -0.32636000           0.07911000           0.71896000         
O                    -1.52257000          -1.11449000          -0.76142000         
O                     2.97035000           0.33278000          -0.43718000         
H                     0.74329000          -1.25068000          -0.47138000         
H                     1.27418000          -1.12184000           1.22770000         
H                     1.47949000           1.56491000           0.16790000         
H                    -3.40432000           0.59134000          -0.25849000         
H                    -2.09348000           1.81038000          -0.33903000         
H                    -2.55343000           1.13944000           1.23624000         
13

C                     1.76896000          -1.25843000           0.10000000         
C                    -2.51307000           1.16888000          -0.23358000         
C                    -1.62491000          -0.01496000           0.06743000         
C                     2.32391000          -0.10274000          -0.18363000         
O                    -0.79739000           0.14870000           1.11680000         
O                    -1.61061000          -1.03438000          -0.55787000         
O                     2.82020000           0.91552000          -0.43968000         
H                     0.75741000          -1.47260000          -0.25279000         
H                     2.30276000          -1.94847000           0.75844000         
H                    -0.89031000           1.02883000           1.49798000         
H                    -3.19494000           0.90783000          -1.04148000         
H                    -1.89697000           2.02458000          -0.53735000         
H                    -3.08265000           1.45406000           0.65649000         
13
DE: 94.74012929100574  DG: 88.58677113402513 DH: 8.072179732313575 (kcal/mol)
C                     1.31988500          -1.02621600           0.23882400         
C                    -2.30357400           1.09981600          -0.07152400         
C                    -1.41785400          -0.11962900           0.01612300         
C                     1.93837700           0.20879900          -0.03650000         
O                    -0.36981900           0.02114000           0.82099800         
O                    -1.60760300          -1.13780200          -0.60921500         
O                     2.91084500           0.76288700          -0.43171000         
H                     0.69645800          -1.54824500          -0.49415900         
H                     1.40494200          -1.47205900           1.22994200         
H                     0.72746700           0.66397800           0.41198600         
H                    -3.17491900           0.87438200          -0.69132600         
H                    -1.73285300           1.92751400          -0.51318000         
H                    -2.60948900           1.40801300           0.93461400         
