13

C                    -1.01133000           1.16244000          -0.15437000         
C                     2.03705000          -0.64396000          -0.55033000         
C                     0.99615000           0.06865000           0.25504000         
C                    -1.70384000          -0.17935000           0.06701000         
O                     0.34368000           0.98686000          -0.50471000         
O                     0.68336000          -0.15765000           1.38914000         
O                    -1.36597000          -1.18955000          -0.48221000         
H                    -1.49521000           1.63712000          -1.01268000         
H                    -1.13431000           1.80268000           0.73053000         
H                    -2.59385000          -0.14593000           0.73897000         
H                     2.47063000          -1.44972000           0.04216000         
H                     2.81507000           0.06076000          -0.89232000         
H                     1.53018000          -1.04139000          -1.43415000         
13

C                    -0.94194000           1.15269000          -0.70600000         
C                     1.66420000          -0.63485000          -0.59658000         
C                     0.54984000          -0.03977000           0.22661000         
C                    -0.88291000          -0.31908000          -0.29339000         
O                     0.32330000           1.35386000          -0.07290000         
O                     0.80160000          -0.27852000           1.55431000         
O                    -1.62296000          -1.24990000          -0.30647000         
H                    -0.91087000           1.31140000          -1.79621000         
H                    -1.74947000           1.75141000          -0.26545000         
H                     0.11086000           0.13296000           2.08762000         
H                     1.70883000          -1.71799000          -0.43060000         
H                     2.60747000          -0.17326000          -0.27562000         
H                     1.50361000          -0.42738000          -1.66199000         
13
DE: 120.83762188653368  DG: 79.0090618615239 DH: 23.77055449330784 (kcal/mol)
C                    -0.92210000           1.17869100          -0.34259500         
C                     1.69094800          -0.73014600          -0.61928400         
C                     0.69824000           0.06317400           0.15390600         
C                    -1.03375800          -0.32939000           0.05560800         
O                     0.45289000           1.40091100          -0.22351900         
O                     0.42541900          -0.17595200           1.40915300         
O                    -1.47242100          -1.37065300          -0.35196100         
H                    -1.24843900           1.18191500          -1.39136000         
H                    -1.54229400           1.85156600           0.26070100         
H                    -0.86538800          -0.17435600           1.40346400         
H                     1.63773600          -1.77210900          -0.28888200         
H                     2.70662600          -0.34709800          -0.44955000         
H                     1.46467500          -0.66833300          -1.68956800         
