17

C                    -1.69073000           0.17138000          -0.68658000         
C                     1.61616000          -1.65351000           0.32165000         
C                    -2.39613000           0.04082000           0.65152000         
C                     0.59964000           0.46024000          -0.07409000         
C                     0.54977000           1.78033000           0.15882000         
O                    -0.35834000          -0.31471000          -0.62055000         
O                     1.70663000          -0.24533000           0.21414000         
H                    -1.69732000           1.20385000          -1.05366000         
H                    -2.18175000          -0.44646000          -1.45107000         
H                     0.78994000          -1.95209000           0.98067000         
H                     1.47674000          -2.11775000          -0.66727000         
H                     2.56686000          -1.98199000           0.75687000         
H                     1.41487000           2.24732000           0.61823000         
H                    -0.30653000           2.38605000          -0.11339000         
H                    -3.41969000           0.43324000           0.57990000         
H                    -1.86463000           0.61126000           1.42076000         
H                    -2.44446000          -1.01192000           0.95759000         
17

C                    -1.72053000          -0.46237000          -0.57774000         
C                     0.14993000          -1.90285000          -0.40154000         
C                    -2.13670000          -0.30186000           0.87796000         
C                     1.42263000           1.16846000           0.29491000         
C                     0.76493000           2.19221000          -0.20651000         
O                    -0.32925000          -0.63156000          -0.75523000         
O                     2.04101000           0.31022000           0.77993000         
H                    -1.98670000           0.44288000          -1.14034000         
H                    -2.25896000          -1.30744000          -1.04401000         
H                    -0.35389000          -2.69128000          -0.98526000         
H                     1.21928000          -1.92345000          -0.62289000         
H                     0.01548000          -2.11567000           0.67071000         
H                     1.09969000           3.19606000           0.04048000         
H                    -0.05796000           2.00184000          -0.88551000         
H                    -3.19913000          -0.03416000           0.92693000         
H                    -1.55360000           0.49958000           1.34879000         
H                    -1.99581000          -1.22708000           1.45297000         
17
DE: 77.70701142295681  DG: 74.90016142951647 DH: 10.17017208413001 (kcal/mol)
C                    -1.47958800          -0.08960300          -0.61680300         
C                     0.88883600          -1.81593500           0.00744000         
C                    -2.03761100          -0.09590000           0.79192900         
C                     0.83652700           0.67292500          -0.02867400         
C                     0.56875600           1.99333900          -0.03899000         
O                    -0.06019200          -0.25678200          -0.64395500         
O                     1.77201300          -0.04509900           0.42617400         
H                    -1.71178300           0.84149600          -1.14855600         
H                    -1.87441900          -0.91799500          -1.21817700         
H                     0.01385400          -2.31867400          -0.40955200         
H                     1.79354600          -2.00210500          -0.56246800         
H                     0.99046000          -1.95015300           1.08070100         
H                     1.27589600           2.66680700           0.43338400         
H                    -0.29865300           2.39647700          -0.55172000         
H                    -3.12663800           0.03209100           0.76085900         
H                    -1.60184100           0.72409800           1.37350300         
H                    -1.81650200          -1.04595900           1.29486300         
