17

C                    -1.56259000          -0.50718000           0.28026000         
C                     2.39642000          -1.01103000          -0.06249000         
C                    -2.99479000          -0.15326000          -0.02682000         
C                     0.57997000           0.48732000          -0.03348000         
C                     1.34695000           1.57917000           0.10381000         
O                    -0.75382000           0.58249000          -0.15034000         
O                     1.00474000          -0.78876000          -0.10513000         
H                    -1.25478000          -1.43869000          -0.22966000         
H                    -1.42037000          -0.65628000           1.35870000         
H                     2.54890000          -2.08958000          -0.14726000         
H                     2.89391000          -0.50090000          -0.89902000         
H                     2.82452000          -0.65162000           0.88559000         
H                     2.42964000           1.53314000           0.12506000         
H                     0.84793000           2.53928000           0.17877000         
H                    -3.66594000          -0.93495000           0.33246000         
H                    -3.14264000          -0.04817000          -1.10583000         
H                    -3.25674000           0.81806000           0.44447000         
17

C                    -1.82502000          -0.45155000          -0.16876000         
C                     2.95670000           0.22964000           0.30384000         
C                    -3.08950000           0.29699000           0.18280000         
C                     0.49996000          -0.10397000          -0.10730000         
C                     1.59257000           0.89622000           0.18577000         
O                    -0.71562000           0.41032000           0.11651000         
O                     0.67371000          -1.22453000          -0.50624000         
H                    -1.79002000          -0.73413000          -1.22697000         
H                    -1.71697000          -1.37447000           0.41814000         
H                     3.17695000          -0.34695000          -0.60338000         
H                     3.74297000           0.98203000           0.44734000         
H                     2.97722000          -0.46549000           1.15329000         
H                     1.57896000           1.62523000          -0.63830000         
H                     1.31109000           1.45013000           1.09155000         
H                    -3.96115000          -0.31888000          -0.03315000         
H                    -3.15802000           1.22638000          -0.39368000         
H                    -3.09991000           0.55104000           1.25108000         
17
DE: 76.06607408049776  DG: 73.3012672235226 DH: -37.01625239005735 (kcal/mol)
C                    -1.68185300          -0.53307300          -0.10395400         
C                     2.74778700          -0.63582700           0.35165700         
C                    -3.05069900          -0.00660600           0.25954100         
C                     0.51870100           0.31452400          -0.16779100         
C                     1.46832200           1.33276600           0.00803200         
O                    -0.78110100           0.58123100          -0.11879100         
O                     0.89663500          -0.87640100          -0.33810300         
H                    -1.67716400          -1.00445100          -1.09433000         
H                    -1.31441100          -1.27469300           0.61649700         
H                     2.90287200          -1.52972200          -0.24852200         
H                     3.54243700           0.09678300           0.23968100         
H                     2.44845000          -0.81447700           1.38039500         
H                     2.19360800           1.39237400          -0.80149500         
H                     1.15255800           2.28866000           0.42594200         
H                    -3.77825000          -0.82701000           0.27003300         
H                    -3.37769200           0.74382600          -0.46962800         
H                    -3.03023200           0.45936700           1.25167400         
