17

C                     1.70107000           0.19751000           0.54507000         
C                    -1.93630000          -1.40232000           0.06420000         
C                     2.40870000          -0.66638000          -0.48031000         
C                    -0.59630000           0.53652000          -0.02416000         
C                    -1.63606000           1.38337000          -0.01348000         
O                     0.66714000           0.98377000          -0.05880000         
O                    -0.65991000          -0.81098000          -0.03093000         
H                     2.39621000           0.92829000           0.97623000         
H                     1.28269000          -0.40895000           1.35726000         
H                    -1.78117000          -2.48432000           0.07149000         
H                    -2.44171000          -1.09021000           0.98875000         
H                    -2.55845000          -1.12710000          -0.79863000         
H                    -2.66239000           1.04474000          -0.07114000         
H                    -1.42223000           2.44671000           0.02332000         
H                     2.75813000          -0.04262000          -1.30917000         
H                     3.27989000          -1.15389000          -0.02739000         
H                     1.73549000          -1.43470000          -0.87423000         
17

C                     2.52482000          -0.40260000           0.94825000         
C                    -1.84633000          -1.41858000           0.13543000         
C                     2.79370000          -0.91279000          -0.25266000         
C                    -0.88159000           0.71373000          -0.18375000         
C                    -2.02624000           1.37814000           0.02135000         
O                     0.26919000           1.33072000          -0.47728000         
O                    -0.70868000          -0.62726000          -0.13265000         
H                     3.23396000           0.23193000           1.47203000         
H                     1.57842000          -0.60523000           1.44345000         
H                    -1.50991000          -2.45906000           0.13470000         
H                    -2.27123000          -1.16723000           1.11689000         
H                    -2.60990000          -1.27368000          -0.64080000         
H                    -2.96037000           0.87538000           0.23475000         
H                    -2.00460000           2.46039000          -0.04844000         
H                     0.99152000           0.68656000          -0.46557000         
H                     3.74455000          -0.72556000          -0.75877000         
H                     2.06282000          -1.54256000          -0.76941000         
17
DE: 69.54813290397453  DG: 64.06683742150926 DH: 14.333173996175907 (kcal/mol)
C                     2.02268100          -0.01115900           0.76158500         
C                    -1.99818600          -1.35395400           0.06036300         
C                     2.54465100          -0.58441900          -0.40555200         
C                    -0.65343200           0.59831800          -0.10552400         
C                    -1.70809200           1.42597100           0.01415200         
O                     0.59427900           0.99860000          -0.26192800         
O                    -0.72626900          -0.76664900          -0.06609900         
H                     2.43478600           0.90462800           1.18000600         
H                     1.30597300          -0.55222600           1.37643200         
H                    -1.85102600          -2.43787100           0.05243800         
H                    -2.47964100          -1.05703200           1.00353800         
H                    -2.64863700          -1.06696000          -0.77818500         
H                    -2.72781300           1.07753700           0.13964700         
H                    -1.51110900           2.49256200          -0.03236100         
H                     1.51966300           0.13624800          -0.81457800         
H                     3.46010700          -0.17537600          -0.83129900         
H                     2.30789100          -1.62565600          -0.62156200         
