17

C                     1.55659000          -0.78491000          -0.26365000         
C                    -2.12307000          -0.98219000          -0.00782000         
C                     2.10713000          -0.14799000           1.00197000         
C                    -0.38297000           0.56372000          -0.19258000         
C                    -0.74077000           1.84657000          -0.24745000         
O                     0.62335000           0.06142000          -0.94058000         
O                    -1.01021000          -0.34554000           0.60333000         
H                     1.08797000          -1.75302000          -0.04268000         
H                     2.35209000          -0.94788000          -0.99877000         
H                    -1.82917000          -1.46073000          -0.95186000         
H                    -2.48567000          -1.74141000           0.69147000         
H                    -2.92003000          -0.25261000          -0.20478000         
H                    -1.60030000           2.18923000           0.32212000         
H                    -0.17921000           2.53598000          -0.87163000         
H                     2.29990000           0.92045000           0.82539000         
H                     1.39452000          -0.24578000           1.83137000         
H                     3.05547000          -0.63122000           1.29310000         
17

C                     1.69082000          -0.73216000          -0.46822000         
C                    -2.07323000          -0.70389000          -0.02411000         
C                     1.40055000           0.06431000           0.81400000         
C                     0.04619000           0.34178000           0.14268000         
C                    -0.41683000           1.76969000          -0.04245000         
O                     0.50170000          -0.22423000          -1.08968000         
O                    -0.91530000          -0.46952000           0.74939000         
H                     1.65785000          -1.82421000          -0.34843000         
H                     2.59257000          -0.44966000          -1.02772000         
H                    -1.80266000          -0.92683000          -1.06511000         
H                    -2.57994000          -1.57280000           0.40992000         
H                    -2.76410000           0.15312000           0.00089000         
H                    -1.25453000           1.81063000          -0.74820000         
H                     0.40033000           2.37208000          -0.44985000         
H                    -0.73576000           2.18201000           0.92020000         
H                     1.31773000          -0.49678000           1.74799000         
H                     2.02305000           0.95515000           0.93745000         
17
DE: 99.98234365396824  DG: 95.40779939899652 DH: -3.042543021032509 (kcal/mol)
C                     1.65005600          -0.77480500          -0.35061800         
C                    -2.12434200          -0.80383600          -0.02411900         
C                     1.67429700           0.00867700           0.93014200         
C                    -0.16139400           0.41109700          -0.08630900         
C                    -0.52496900           1.77497300          -0.10888400         
O                     0.56283400          -0.10766900          -1.09258800         
O                    -0.91248700          -0.45123700           0.64513400         
H                     1.38183200          -1.82935400          -0.21753900         
H                     2.53347200          -0.69994000          -0.99356700         
H                    -1.90579800          -1.20244100          -1.02281300         
H                    -2.59634700          -1.57540800           0.58858500         
H                    -2.79297800           0.06213100          -0.11314100         
H                    -1.37939600           2.10383500           0.47590000         
H                    -0.06071800           2.41048900          -0.85667000         
H                     0.50520500           1.31066700           0.70819800         
H                     1.55714500          -0.56272400           1.85284700         
H                     2.47291500           0.75736300           0.99656800         
