17

C                    -1.06653000          -1.38813000           0.21327000         
C                     0.04742000           2.09064000           0.07570000         
C                    -2.25684000          -0.52515000          -0.17350000         
C                     0.91399000          -0.08185000          -0.03337000         
C                     2.21475000          -0.02228000          -0.31052000         
O                     0.11803000          -1.05801000          -0.51392000         
O                     0.26795000           0.84439000           0.72526000         
H                    -1.26002000          -2.43868000          -0.03870000         
H                    -0.86866000          -1.32230000           1.29153000         
H                    -0.65493000           2.65335000           0.69672000         
H                     0.98652000           2.65322000          -0.01428000         
H                    -0.38031000           1.93967000          -0.92089000         
H                     2.81340000           0.79739000           0.06493000         
H                     2.67601000          -0.80512000          -0.90540000         
H                    -2.12885000           0.50015000           0.17546000         
H                    -3.17174000          -0.93110000           0.28239000         
H                    -2.38439000          -0.52832000          -1.26599000         
17

C                    -1.15904000          -0.87979000           0.14296000         
C                    -1.42795000           1.61399000          -0.33873000         
C                    -1.93036000           0.19593000          -0.60922000         
C                     1.16889000          -0.24631000           0.13854000         
C                     2.32244000          -0.11887000          -0.51815000         
O                     0.16459000          -1.01042000          -0.35529000         
O                     0.95388000           0.30678000           1.36414000         
H                    -1.62513000          -1.85658000          -0.01450000         
H                    -1.14117000          -0.68344000           1.21915000         
H                    -2.02311000           2.35407000          -0.88603000         
H                    -1.52811000           1.86106000           0.72941000         
H                    -0.38352000           1.74404000          -0.65264000         
H                     3.13886000           0.44123000          -0.05931000         
H                     2.45649000          -0.62212000          -1.46808000         
H                     0.41407000           1.11188000           1.25566000         
H                    -2.99594000           0.11263000          -0.34506000         
H                    -1.84669000          -0.02227000          -1.68500000         
17
DE: 99.59893534947318  DG: 94.48912549099741 DH: -10.709130019120462 (kcal/mol)
C                    -1.02386500          -1.26716700           0.18678300         
C                    -0.65348700           1.96582700          -0.33412500         
C                    -1.95274400          -0.12221100          -0.18551200         
C                     1.07633400          -0.20439400           0.18864700         
C                     2.26698800          -0.00695900          -0.47160900         
O                     0.21891900          -1.13400700          -0.43752100         
O                     0.61208300           0.40637000           1.17431200         
H                    -1.47455800          -2.19456400          -0.19769500         
H                    -0.93122800          -1.33004400           1.27597800         
H                    -1.50453900           2.42012400          -0.84188500         
H                    -0.30552900           2.42236000           0.58913200         
H                     0.11634600           1.49836400          -0.95176800         
H                     2.96642500           0.71757500          -0.06563700         
H                     2.54184500          -0.64203600          -1.30853400         
H                    -1.34400900           0.83044600           0.20032500         
H                    -2.89970300          -0.07716000           0.36493300         
H                    -2.09241700          -0.01453600          -1.26428100         
