17

C                     1.40768000           0.02200000           0.62045000         
C                    -1.43461000          -1.63581000          -0.08599000         
C                     2.76460000          -0.37980000           0.09290000         
C                    -0.71717000           0.59199000          -0.17544000         
C                    -1.22885000           1.78472000          -0.49157000         
O                     0.54550000           0.22283000          -0.50073000         
O                    -1.42541000          -0.34374000           0.50437000         
H                     1.45877000           0.96170000           1.20499000         
H                     0.99435000          -0.75060000           1.27968000         
H                    -0.42191000          -2.05447000          -0.16344000         
H                    -2.04326000          -2.27097000           0.56171000         
H                    -1.88173000          -1.59599000          -1.09032000         
H                    -2.27950000           1.98961000          -0.28737000         
H                    -0.59862000           2.53042000          -0.96719000         
H                     2.68177000          -1.29993000          -0.49564000         
H                     3.46037000          -0.55824000           0.92443000         
H                     3.16847000           0.40582000          -0.55230000         
17

C                     0.66480000           0.49125000           0.48743000         
C                    -1.20048000          -1.61939000          -0.00465000         
C                     2.62796000          -0.58744000          -0.15819000         
C                    -0.77908000           0.73190000           0.13019000         
C                    -1.23694000           1.92598000          -0.24681000         
O                     1.29422000          -0.29793000          -0.48982000         
O                    -1.64635000          -0.30610000           0.28226000         
H                     1.16272000           1.46957000           0.58091000         
H                     0.71556000          -0.00459000           1.47517000         
H                    -0.42190000          -1.95355000           0.70118000         
H                    -2.07611000          -2.26374000           0.10711000         
H                    -0.79783000          -1.69400000          -1.02654000         
H                    -2.29249000           2.05407000          -0.48326000         
H                    -0.56744000           2.77565000          -0.30026000         
H                     3.06328000          -1.15664000          -0.98405000         
H                     2.68587000          -1.19285000           0.76108000         
H                     3.20878000           0.33284000          -0.01351000         
17
DE: 161.84480  DG: 155.48383250001677 DH: 7.674713193116632 (kcal/mol)
C                     0.18640200          -0.77328700           0.89210700         
C                     0.08742100           1.98083700           0.13058600         
C                     2.68855300          -0.45586600          -0.21338600         
C                    -0.86733500          -0.20381000          -0.00045400         
C                    -2.05841800          -1.00776700          -0.12641900         
O                     0.25843100          -0.87554800          -0.54668500         
O                    -0.97568800           1.13784800          -0.25592900         
H                     0.95428800          -0.11802900           1.32008800         
H                    -0.00116900          -1.71087000           1.41742000         
H                     1.04335200           1.61564800          -0.27014300         
H                    -0.12831100           2.97108500          -0.28134100         
H                     0.15588100           2.05930500           1.22579500         
H                    -2.70373600          -1.17827200           0.73235700         
H                    -2.23275300          -1.54450400          -1.05627000         
H                     2.69668400          -1.53600200          -0.09682500         
H                     3.16776300           0.15608400           0.54911500         
H                     2.56631000          -0.05348400          -1.21388800         