17

C                    -1.45954000           0.20195000           0.24528000         
C                     1.42413000           1.74728000           0.34243000         
C                    -2.84779000          -0.29023000          -0.09163000         
C                     0.77964000          -0.48449000          -0.10451000         
C                     1.72619000          -1.33795000           0.28785000         
O                    -0.53147000          -0.81904000          -0.10704000         
O                     1.02840000           0.75583000          -0.59558000         
H                    -1.36791000           0.41631000           1.32222000         
H                    -1.23338000           1.11722000          -0.31355000         
H                     1.02434000           1.52429000           1.34057000         
H                     2.52172000           1.80682000           0.40283000         
H                     1.02984000           2.70828000          -0.00645000         
H                     2.77258000          -1.07131000           0.16921000         
H                     1.44531000          -2.30928000           0.68318000         
H                    -3.06834000          -1.22032000           0.44571000         
H                    -2.92367000          -0.48578000          -1.16798000         
H                    -3.59384000           0.46307000           0.18577000         
17

C                    -1.05679000           0.42039000           0.30635000         
C                     0.18674000           1.47617000          -0.01445000         
C                    -2.50521000           0.20343000          -0.22431000         
C                     0.91723000          -0.60298000          -0.11921000         
C                     1.79753000          -1.52636000           0.24777000         
O                    -0.41340000          -0.78755000          -0.06071000         
O                     1.19476000           0.64578000          -0.57483000         
H                    -0.04648000           0.51818000           3.38015000         
H                    -1.14642000           0.44674000           1.39917000         
H                     0.39663000           0.97438000           2.97308000         
H                     0.54109000           1.85999000           0.95227000         
H                    -0.00785000           2.31162000          -0.69286000         
H                     2.86088000          -1.33630000           0.14861000         
H                     1.42652000          -2.48546000           0.59499000         
H                    -2.70751000          -0.85131000          -0.00105000         
H                    -2.60780000           0.34590000          -1.30582000         
H                    -3.24542000           0.81575000           0.30255000         
17
DE: 133.25415236300302  DG: 125.13543445202636 DH: 7.41491395793499 (kcal/mol)
C                    -1.32549100           0.14232300           0.26038800         
C                     0.92608800           1.76671800           0.13443200         
C                    -2.70995600          -0.14512200          -0.18334500         
C                     0.91832200          -0.53762400          -0.13767200         
C                     1.74084600          -1.52585900           0.20128300         
O                    -0.45768400          -0.77146900          -0.07830200         
O                     1.26366000           0.63342300          -0.66882500         
H                    -0.41619400           0.57141300           2.11711800         
H                    -0.90830700           1.14825600           0.45417500         
H                     0.14123900           1.05984600           1.78055200         
H                     1.75637100           2.00053500           0.80954800         
H                     0.68372100           2.59870300          -0.53072800         
H                     2.81053600          -1.36628100           0.10637500         
H                     1.34408700          -2.47793300           0.54052700         
H                    -2.89676300          -1.22441700          -0.16583600         
H                    -2.82522500           0.20381400          -1.22335400         
H                    -3.43613000           0.38782200           0.43811700         
