17

C                    -1.26839000          -0.97888000          -0.29188000         
C                     2.19095000          -0.87568000          -0.08089000         
C                    -2.59079000          -0.24087000          -0.33285000         
C                     0.39815000           0.60807000           0.19929000         
C                     0.19932000           1.89522000           0.48357000         
O                    -0.38934000          -0.38746000           0.67412000         
O                     1.41315000           0.19400000          -0.59818000         
H                    -0.77317000          -0.98616000          -1.27354000         
H                    -1.41108000          -2.01735000           0.03275000         
H                     3.01913000          -1.02500000          -0.77961000         
H                     2.58594000          -0.62059000           0.91135000         
H                     1.60174000          -1.79858000          -0.00477000         
H                     0.91289000           2.63939000           0.14209000         
H                    -0.66999000           2.18311000           1.06740000         
H                    -2.43121000           0.81094000          -0.61129000         
H                    -3.07150000          -0.27495000           0.65299000         
H                    -3.26171000          -0.69678000          -1.07165000         
17

C                    -1.36565000          -1.06592000          -0.02977000         
C                     2.09742000          -0.40865000           0.27354000         
C                    -2.60536000          -0.22138000          -0.04600000         
C                     0.68708000           1.19245000          -0.73452000         
C                     0.46567000           1.90692000           0.37205000         
O                    -0.69293000          -1.25555000           0.94815000         
O                     1.35390000           0.02802000          -0.85037000         
H                     0.30772000           1.52028000          -1.70201000         
H                    -1.08916000          -1.53492000          -1.00093000         
H                     2.85115000           0.35830000           0.54923000         
H                     1.44007000          -0.60956000           1.12299000         
H                     2.58663000          -1.33054000          -0.02430000         
H                     0.81238000           1.59394000           1.35740000         
H                    -0.08239000           2.83635000           0.29161000         
H                    -2.74168000           0.25016000           0.93078000         
H                    -3.46785000          -0.85402000          -0.28459000         
H                    -2.52395000           0.54154000          -0.83119000         
17
DE: 108.02325038696301  DG: 103.2140175790131 DH: 8.746414913957928 (kcal/mol)
C                    -1.11738300          -0.63014300          -0.31540900         
C                     2.21160700          -0.78015700           0.17875500         
C                    -2.54576300          -0.20488300          -0.07052300         
C                     0.35096300           0.63002400          -0.17474100         
C                     0.13468800           1.88544100           0.25831900         
O                    -0.34857300          -0.82649600           0.75142300         
O                     1.44840400           0.10454800          -0.65729500         
H                    -0.65961500           0.33708200          -1.00070300         
H                    -1.01796800          -1.35881800          -1.15002500         
H                     3.22416200          -0.76381900          -0.23252900         
H                     2.19924100          -0.41250800           1.20917600         
H                     1.78260100          -1.78368700           0.15108300         
H                     1.01695200           2.46879200           0.50631700         
H                    -0.85972200           2.27365000           0.44529800         
H                    -2.56930300           0.63143500           0.63563800         
H                    -3.03360400          -1.06122700           0.41641400         
H                    -3.08606400           0.04298300          -0.99210600         
