17

C                    -1.34123000          -0.86012000           0.51396000         
C                    -0.16730000           2.03762000           0.44537000         
C                    -1.59417000          -1.12142000          -0.95974000         
C                     0.85410000          -0.06053000          -0.01445000         
C                     2.03331000          -0.56158000          -0.38516000         
O                     0.04150000          -0.70779000           0.85225000         
O                     0.40337000           1.12821000          -0.48648000         
H                    -1.67468000          -1.71061000           1.11897000         
H                    -1.90346000           0.02241000           0.85306000         
H                    -1.25169000           2.10391000           0.29059000         
H                     0.27312000           3.02572000           0.26717000         
H                     0.03739000           1.72552000           1.47735000         
H                     2.70321000           0.03936000          -0.99243000         
H                     2.30852000          -1.56348000          -0.07050000         
H                    -1.36159000          -0.23932000          -1.56711000         
H                    -0.97710000          -1.95553000          -1.31444000         
H                    -2.65057000          -1.38069000          -1.10480000         
17

C                    -1.17578000          -1.14762000           0.45500000         
C                    -0.22033000           1.94800000           0.51682000         
C                    -1.63335000          -1.11111000          -0.79308000         
C                     0.86347000          -0.07180000          -0.00143000         
C                     2.03507000          -0.58135000          -0.37125000         
O                     0.04902000          -0.72156000           0.88793000         
O                     0.39733000           1.10997000          -0.45125000         
H                    -1.74936000          -1.54935000           1.28916000         
H                    -1.19326000           1.54440000           0.83054000         
H                    -2.27325000           2.27453000          -2.37614000         
H                    -0.36933000           2.91600000           0.03101000         
H                     0.42927000           2.07119000           1.39363000         
H                     2.69140000           0.00095000          -1.01113000         
H                     2.31585000          -1.57559000          -0.03735000         
H                    -1.70943000           1.83807000          -2.12282000         
H                    -1.04060000          -0.70576000          -1.61866000         
H                    -2.62629000          -1.50199000          -0.99935000         
17
DE: 116.13004561750546  DG: 110.53077834901701 DH: 30.728967495219884 (kcal/mol)
C                    -1.19067400          -0.72168600           0.51985000         
C                    -0.44998400           1.68436700           0.35027800         
C                    -1.64060100          -0.84736000          -0.80652300         
C                     1.01561800          -0.14208900           0.02864900         
C                     2.22430300          -0.58637000          -0.31548200         
O                     0.17691700          -0.84939000           0.82259300         
O                     0.53987900           1.05413700          -0.40504300         
H                    -1.79028200          -1.09064200           1.35154600         
H                    -1.30548500           0.60881800           0.62518500         
H                    -1.64544700           1.34852000          -0.74000100         
H                    -0.57169100           2.70312700          -0.01944500         
H                    -0.19237100           1.72469800           1.42037000         
H                     2.89281200           0.06148400          -0.87337900         
H                     2.52415700          -1.58659500          -0.02007000         
H                    -1.79895700           0.55755700          -1.18671500         
H                    -0.93084800          -1.11665100          -1.59015100         
H                    -2.66823100          -1.16946700          -0.96836900         
