21

C                     1.12132000          -1.75355000           0.83396000         
C                     1.18772000          -0.29992000           0.50839000         
O                     0.89427000          -0.05795000          -0.84829000         
O                     2.16010000           0.17076000          -1.44843000         
O                     1.49945000           0.59898000           1.22335000         
H                     2.27886000           1.12340000          -1.31397000         
H                     1.91133000          -2.25053000           0.25171000         
H                     0.15660000          -2.15694000           0.50946000         
H                     1.27727000          -1.91351000           1.90128000         
C                    -1.42635000           1.93969000          -0.02728000         
C                    -2.24879000          -0.94217000          -1.03777000         
C                    -2.13074000          -0.47603000           0.38643000         
C                    -1.78326000           0.74637000           0.81107000         
H                    -1.76854000           0.91217000           1.89176000         
H                    -2.39499000          -1.21004000           1.15313000         
H                    -1.36677000           1.70253000          -1.09425000         
H                    -0.45310000           2.34163000           0.29618000         
H                    -2.17541000           2.73411000           0.10998000         
H                    -1.89112000          -1.97293000          -1.14281000         
H                    -1.67676000          -0.31533000          -1.72700000         
H                    -3.30045000          -0.93725000          -1.36027000         
21

C                    -0.48596000          -2.01251000           0.96277000         
C                     0.69069000           0.50998000           0.34162000         
O                     0.88409000           0.40974000          -0.98666000         
O                     2.24403000           0.36040000          -1.31673000         
O                     1.62533000           0.58248000           1.09797000         
H                     2.66132000           0.45072000          -0.43506000         
H                     0.40663000          -2.09791000           0.32495000         
H                    -1.01099000          -2.97935000           0.93197000         
H                    -0.15008000          -1.83483000           1.99393000         
C                    -1.53121000           1.64320000           0.03691000         
C                    -1.81328000          -1.14914000          -0.99911000         
C                    -1.40491000          -0.90066000           0.45352000         
C                    -0.77125000           0.49316000           0.70936000         
H                    -0.76074000           0.65197000           1.79532000         
H                    -2.32863000          -0.90635000           1.06301000         
H                    -1.40989000           1.61688000          -1.05102000         
H                    -1.17605000           2.61705000           0.40884000         
H                    -2.60385000           1.55801000           0.27122000         
H                    -2.27587000          -2.14477000          -1.08181000         
H                    -0.94519000          -1.11458000          -1.66919000         
H                    -2.55155000          -0.42428000          -1.34185000         
21
DE: 79.00407355949933  DG: 94.62090248595007 DH: -15.881453154875711 (kcal/mol)
C                     0.58199700          -1.63066200           0.56916400         
C                     0.55965600           0.09108800           0.47159700         
O                     0.76303300           0.34266600          -0.93722700         
O                     2.11213500           0.05427600          -1.19983800         
O                     1.43843400           0.51130600           1.26456400         
H                     2.52514900           0.46397000          -0.41071100         
H                     1.61519200          -1.66346300           0.19792900         
H                     0.02021600          -2.34545800          -0.04441400         
H                     0.57062600          -1.90046100           1.62746100         
C                    -1.30519000           1.84850700          -0.16421300         
C                    -1.91135600          -1.07335300          -0.85974000         
C                    -1.39620100          -0.65857100           0.46736600         
C                    -0.92055300           0.67579700           0.71670200         
H                    -0.90698400           0.92478100           1.77929500         
H                    -1.62935400          -1.29206200           1.32277300         
H                    -1.33631800           1.58463600          -1.22464900         
H                    -0.55257400           2.63496100          -0.04072200         
H                    -2.28075400           2.24883500           0.14034200         
H                    -2.06351800          -2.15372400          -0.93330400         
H                    -1.24007800          -0.72180500          -1.65111500         
H                    -2.88053800          -0.56302600          -0.98814000         
