21

C                    -1.26719000          -1.52023000           0.63965000         
C                    -1.06971000          -0.60477000          -0.53448000         
O                    -1.55376000           0.67279000          -0.42483000         
O                    -2.03785000           0.95132000           0.86869000         
O                    -0.56931000          -0.89334000          -1.57824000         
H                    -2.84560000           1.43855000           0.64808000         
H                    -0.92928000          -1.05331000           1.56650000         
H                    -0.71241000          -2.43758000           0.42934000         
H                    -2.33683000          -1.74365000           0.73918000         
C                     1.74963000           1.62467000          -0.75704000         
C                     2.27103000          -1.27158000           0.21432000         
C                     1.69366000          -0.15072000           1.04214000         
C                     1.46363000           1.09648000           0.61662000         
H                     1.02372000           1.80283000           1.32556000         
H                     1.46163000          -0.37871000           2.08565000         
H                     0.81109000           1.91059000          -1.25638000         
H                     2.25551000           0.88527000          -1.38829000         
H                     2.38104000           2.52320000          -0.70028000         
H                     2.11282000          -2.23416000           0.70718000         
H                     3.35641000          -1.15237000           0.08556000         
H                     1.81709000          -1.32144000          -0.77944000         
21

C                    -0.33383000          -0.99622000           0.74484000         
C                    -1.01717000          -0.57594000          -0.53226000         
O                    -1.79718000           0.55568000          -0.50261000         
O                    -2.06125000           1.01679000           0.80544000         
O                    -0.81743000          -1.05276000          -1.60751000         
H                    -2.98918000           1.26820000           0.70905000         
H                     1.19164000          -0.74802000           3.32637000         
H                    -0.28262000          -2.08858000           0.76197000         
H                    -0.82847000          -0.62432000           1.64069000         
C                     2.19868000           1.74326000          -0.27528000         
C                     2.09963000          -1.36997000           0.08970000         
C                     1.04755000          -0.38322000           0.49665000         
C                     1.12538000           0.95043000           0.40188000         
H                     0.24844000           1.52553000           0.71041000         
H                     1.44221000          -1.03771000           3.98306000         
H                     1.76390000           2.21235000          -1.16939000         
H                     3.04726000           1.12917000          -0.59798000         
H                     2.57740000           2.55715000           0.36444000         
H                     2.21960000          -2.13223000           0.87281000         
H                     3.07269000          -0.90231000          -0.08607000         
H                     1.78066000          -1.88623000          -0.82914000         
21
DE: 127.57581889750018  DG: 136.00640902997418 DH: 8.970124282982793 (kcal/mol)
C                    -0.81713300          -1.31430000           0.66788300         
C                    -1.07290000          -0.61800400          -0.55707200         
O                    -1.66827800           0.63729200          -0.48200400         
O                    -2.07357000           0.98937000           0.81969100         
O                    -0.66516500          -0.90656600          -1.65709700         
H                    -3.03140000           1.04662900           0.70868000         
H                     0.50944800          -0.65972700           1.91233100         
H                    -0.55745400          -2.36224200           0.52633900         
H                    -1.40959200          -1.06196500           1.54427500         
C                     1.87885200           1.68689200          -0.62955600         
C                     1.95451500          -1.35040000           0.13981100         
C                     1.13929800          -0.25387000           0.74788500         
C                     1.14518500           1.07019400           0.52973000         
H                     0.47817800           1.70561600           1.11266100         
H                     1.26303700          -0.44858300           2.22565600         
H                     1.16162700           2.06587100          -1.37066000         
H                     2.52250900           0.96248200          -1.14001200         
H                     2.50159400           2.53126900          -0.30186100         
H                     1.99150800          -2.22649000           0.79519300         
H                     2.97859400          -1.00250000          -0.04080400         
H                     1.48116400          -1.63419900          -0.80860500         
