21

C                     0.76463000           0.17540000           1.67197000         
C                     1.21978000          -0.64135000           0.49830000         
O                     1.84919000           0.01127000          -0.52905000         
O                     1.87631000           1.40943000          -0.34491000         
O                     1.12049000          -1.82617000           0.38802000         
H                     2.74857000           1.60813000          -0.71811000         
H                     0.05418000          -0.44342000           2.23005000         
H                     0.31530000           1.12192000           1.36224000         
H                     1.62850000           0.39249000           2.30701000         
C                    -2.19591000          -1.48759000          -0.44686000         
C                    -2.35128000           1.57833000           0.37170000         
C                    -1.48385000           0.95178000          -0.68205000         
C                    -1.42953000          -0.33827000          -1.03095000         
H                    -0.72809000          -0.60633000          -1.82429000         
H                    -0.82244000           1.63880000          -1.21672000         
H                    -1.49360000          -2.25555000          -0.10164000         
H                    -2.83725000          -1.94944000          -1.21186000         
H                    -2.83227000          -1.19215000           0.40108000         
H                    -1.74763000           2.13572000           1.09953000         
H                    -2.95231000           0.84357000           0.91696000         
H                    -3.03854000           2.30427000          -0.08181000         
21

C                     0.09281000           0.37764000           0.95846000         
C                     1.15244000          -0.52447000           0.38584000         
O                     2.03819000           0.02457000          -0.50947000         
O                     1.92909000           1.42819000          -0.59224000         
O                     1.24678000          -1.69710000           0.57325000         
H                     2.86245000           1.67480000          -0.55645000         
H                    -1.62896000          -2.60513000           2.68067000         
H                     0.53780000           1.29421000           1.35670000         
H                    -0.37243000          -0.19635000           1.76626000         
C                    -2.49775000          -1.19121000          -0.74265000         
C                    -2.15111000           1.43499000           0.58635000         
C                    -0.98314000           0.73709000          -0.10130000         
C                    -1.36925000          -0.50190000          -0.87406000         
H                    -0.61204000          -0.87023000          -1.57253000         
H                    -0.51832000           1.43536000          -0.80880000         
H                    -1.18446000          -2.67297000           2.08359000         
H                    -2.66958000          -2.09523000          -1.32621000         
H                    -3.29076000          -0.88428000          -0.06140000         
H                    -1.80965000           2.35267000           1.08099000         
H                    -2.60119000           0.78899000           1.35158000         
H                    -2.92795000           1.70126000          -0.13912000         
21
DE: 95.65817568950644  DG: 105.79119909546259 DH: 10.03704588910134 (kcal/mol)
C                     0.37470000           0.19054500           1.27196900         
C                     1.23683300          -0.62352000           0.40882600         
O                     1.95220100           0.00517600          -0.60360000         
O                     1.96230800           1.41025100          -0.50647800         
O                     1.32376500          -1.81745600           0.41953600         
H                     2.91008400           1.57987700          -0.42728200         
H                    -0.90843800          -0.82825800           1.33321800         
H                     0.55126200           1.26166300           1.25115300         
H                     0.38838000          -0.19422800           2.29344900         
C                    -2.14713200          -1.33646000          -0.50173400         
C                    -2.13173300           1.45326400           0.48081900         
C                    -1.08371300           0.81658600          -0.38877100         
C                    -1.27347000          -0.40392300          -1.03588100         
H                    -0.51019900          -0.73225400          -1.74197200         
H                    -0.33581200           1.48814700          -0.80993400         
H                    -1.43440200          -1.41709700           0.97089900         
H                    -2.13884900          -2.36547900          -0.86243100         
H                    -3.05542000          -1.02320000           0.01043400         
H                    -1.72375800           2.31663100           1.01804700         
H                    -2.53305100           0.74829900           1.21912600         
H                    -2.96889800           1.80317700          -0.14173500         
