21

C                    -0.81268000          -0.06494000          -1.56787000         
C                    -1.76623000          -0.32574000          -0.44083000         
O                    -1.84895000           0.62332000           0.55082000         
O                    -0.95076000           1.69098000           0.34652000         
O                    -2.45970000          -1.28535000          -0.30914000         
H                    -1.51113000           2.43923000           0.59833000         
H                     0.22061000          -0.09108000          -1.19908000         
H                    -0.98822000           0.92098000          -2.00849000         
H                    -0.96459000          -0.85832000          -2.30294000         
C                     2.50893000           1.21175000          -0.36781000         
C                     1.08042000          -0.91351000           1.50001000         
C                     2.16813000          -1.16382000           0.49594000         
C                     2.77414000          -0.26484000          -0.29339000         
H                     3.56729000          -0.63546000          -0.94823000         
H                     2.51548000          -2.19786000           0.42382000         
H                     1.60583000           1.50850000           0.17630000         
H                     2.39983000           1.52897000          -1.41573000         
H                     3.36038000           1.77286000           0.04605000         
H                     0.25768000          -1.63481000           1.36121000         
H                     0.66988000           0.09840000           1.44443000         
H                     1.45945000          -1.07013000           2.51393000         
21

C                    -0.81025000          -0.15758000          -1.48253000         
C                    -1.83129000          -0.34890000          -0.40145000         
O                    -1.91494000           0.62115000           0.56896000         
O                    -0.96365000           1.64668000           0.39264000         
O                    -2.58033000          -1.26811000          -0.29463000         
H                    -1.50948000           2.42195000           0.57545000         
H                     2.45895000          -0.62029000          -1.48150000         
H                    -0.93065000           0.81514000          -1.96894000         
H                    -0.94009000          -0.97351000          -2.19613000         
C                     2.52990000           1.20634000          -0.31765000         
C                     1.27411000          -0.76618000           1.50686000         
C                     2.10489000          -1.16904000           0.54374000         
C                     2.77434000          -0.29012000          -0.47955000         
H                     3.85437000          -0.49037000          -0.44392000         
H                     2.33296000          -2.23556000           0.46583000         
H                     1.46322000           1.45557000          -0.39849000         
H                     3.07506000           1.77121000          -1.08474000         
H                     2.87622000           1.55205000           0.66756000         
H                     0.19217000          -0.19523000          -1.04199000         
H                     0.99357000           0.28001000           1.63120000         
H                     0.83301000          -1.48351000           2.19856000         
21
DE: 71.51286514850783  DG: 81.68542165297117 DH: 2.7368546845124335 (kcal/mol)
C                    -0.49834100          -0.27412200          -1.16605200         
C                    -1.72959800          -0.37227800          -0.37864200         
O                    -2.00330700           0.66106100           0.51993100         
O                    -1.03980800           1.68959400           0.49484000         
O                    -2.51909900          -1.27295200          -0.35217300         
H                    -1.59648000           2.45588700           0.30654400         
H                     1.15841100          -0.45704900          -1.01381600         
H                    -0.29647900           0.73287900          -1.53308400         
H                    -0.53754700          -1.02783700          -1.95551900         
C                     2.33813600           1.22895800          -0.38940000         
C                     0.89233900          -0.84194400           1.36458700         
C                     1.99813500          -1.14040900           0.54273600         
C                     2.31702000          -0.28569000          -0.53982000         
H                     3.06722100          -0.67869500          -1.23114800         
H                     2.31142100          -2.18470900           0.46492200         
H                     1.45048200           1.58887400           0.14112400         
H                     2.35311100           1.70366800          -1.37783200         
H                     3.23578400           1.54873600           0.15526900         
H                     0.14002800          -0.76768200           0.35890500         
H                     0.75422000           0.18318500           1.71956500         
H                     0.55139200          -1.60596800           2.06382300         
