11

C                     1.34034000           0.55601000          -0.25173000         
C                     0.64911000           1.31332000           0.59753000         
O                     1.85806000          -0.64933000           0.10256000         
H                     2.35643000          -1.01188000          -0.61910000         
H                     1.49722000           0.86290000          -1.29222000         
H                     0.52187000           1.01251000           1.64182000         
H                     0.23423000           2.25877000           0.25935000         
C                    -1.51100000          -0.84070000           0.05322000         
O                    -2.37119000          -0.17066000          -0.43916000         
H                    -1.39310000          -0.95065000           1.15405000         
H                    -0.76961000          -1.40559000          -0.55298000         
11

C                     1.31510000           0.53524000           0.02778000         
C                    -0.00344000           0.78114000          -0.03271000         
O                     1.83134000          -0.70346000          -0.03964000         
H                     2.78402000          -0.67885000           0.06635000         
H                     2.03435000           1.35264000           0.13503000         
H                    -0.54115000          -0.42572000           3.08610000         
H                    -0.36067000           1.80770000           0.02052000         
C                    -1.00819000          -0.28026000          -0.17113000         
O                    -2.19598000          -0.06662000          -0.22947000         
H                    -1.13405000          -0.85556000           3.27718000         
H                    -0.60877000          -1.31538000          -0.21804000         
11
DE: 75.29486490498303  DG: 84.05991760100433 DH: -3.44956978967495 (kcal/mol)
C                     1.31616500           0.55179300          -0.10429800         
C                     0.03487300           0.80897300           0.20273200         
O                     1.79657200          -0.70344100          -0.04148600         
H                     2.69401800          -0.74450200          -0.38198500         
H                     2.01352800           1.33125600          -0.42382600         
H                    -0.51426000           0.14242000           1.26055500         
H                    -0.37587800           1.81281600           0.11539100         
C                    -1.15058000          -0.41843200           0.12472700         
O                    -2.20914500          -0.07089400          -0.36699600         
H                    -1.18213400          -0.69206500           1.46289300         
H                    -0.53743600          -1.30924600          -0.10414400         
