12

C                    -0.05829000          -0.13676000           0.76124000         
C                    -1.56907000           0.42870000          -0.51747000         
C                    -1.05149000          -0.95110000          -0.08315000         
O                     1.30376000          -0.30447000           0.55126000         
O                    -0.53733000           1.09217000           0.23814000         
O                     1.56006000          -0.21656000          -0.83146000         
H                     1.49551000           0.73964000          -0.97619000         
H                    -0.15221000          -0.20850000           1.85415000         
H                    -1.50470000           0.66188000          -1.58897000         
H                    -2.56741000           0.69135000          -0.14278000         
H                    -1.74276000          -1.58128000           0.48085000         
H                    -0.55490000          -1.51883000          -0.87211000         
12

C                     0.47558000           0.61399000           0.96118000         
C                    -2.50146000          -0.30255000          -0.44994000         
C                    -1.67975000          -1.33887000          -0.58092000         
O                     1.25585000          -0.40255000           0.58628000         
O                     0.24460000           1.55838000           0.26073000         
O                     1.71370000          -0.24526000          -0.72860000         
H                     1.36356000           0.63954000          -0.95780000         
H                     0.10856000           0.43295000           1.98344000         
H                    -2.17292000           0.71088000          -0.67091000         
H                    -3.53234000          -0.43574000          -0.12564000         
H                    -2.00487000          -2.35067000          -0.35087000         
H                    -0.65045000          -1.21516000          -0.92762000         
12
DE: 60.732879447972955  DG: 56.78960975001256 DH: -5.295172084130012 (kcal/mol)
C                     0.04703100           0.09584400           0.68118900         
C                    -1.82149900           0.19858100          -0.35570300         
C                    -1.21092700          -1.04804400          -0.17724200         
O                     1.29163900          -0.41736200           0.54918000         
O                    -0.17617200           1.24153900           0.12071900         
O                     1.80235800          -0.10516900          -0.72238200         
H                     1.42725500           0.79121300          -0.84487200         
H                    -0.25837200          -0.11278800           1.71908600         
H                    -1.82051200           0.71170500          -1.31328600         
H                    -2.50666300           0.59893000           0.39121100         
H                    -1.56028200          -1.71450000           0.60861100         
H                    -0.71165400          -1.50490000          -1.03036600         
