11

C                     1.40291000          -0.43549000           0.11606000         
C                     1.66730000           1.06967000           0.11937000         
C                     0.04770000          -0.80514000          -0.46094000         
C                    -1.08417000          -0.24602000          -0.08406000         
O                    -2.08081000           0.24819000           0.24719000         
H                    -0.04756000          -1.55862000          -1.24104000         
H                     2.15947000          -0.94484000          -0.49232000         
H                     1.50850000          -0.83570000           1.13506000         
H                     2.66008000           1.29915000           0.52451000         
H                     1.60313000           1.47187000          -0.89838000         
H                     0.92507000           1.59407000           0.73509000         
11

C                     1.23357000          -1.28731000           0.14983000         
C                     1.18211000           1.28428000          -0.31750000         
C                     0.44524000          -0.00843000          -0.02382000         
C                    -0.86864000          -0.00416000           0.06112000         
O                    -2.02861000           0.01121000           0.13434000         
H                     0.60702000          -2.11888000           0.48938000         
H                     1.70520000          -1.57687000          -0.79948000         
H                     2.03731000          -1.13710000           0.88795000         
H                     1.78382000           1.59788000           0.56768000         
H                     1.84764000           1.14416000          -1.17201000         
H                     0.49291000           2.09896000          -0.55338000         
11
DE: 148.89294412200533  DG: 145.4391318340041 DH: -0.780831739961758 (kcal/mol)
C                     1.36850400          -0.75845700           0.30189800         
C                     1.29415100           0.99348700          -0.02088600         
C                    -0.04991100          -0.45961200          -0.77651300         
C                    -1.13648400          -0.13312300          -0.11820100         
O                    -2.19645200           0.17941700           0.28796600         
H                     0.80308000          -1.69558500           0.35497200         
H                     2.28274900          -0.98923400          -0.24336700         
H                     1.53832300          -0.55170500           1.36980600         
H                     2.29230900           1.16721100           0.39286000         
H                     1.25534900           1.27057800          -1.07091600         
H                     0.54223600           1.50963500           0.57513700         
