16

C                    -1.28025000          -1.03847000          -0.33742000         
C                    -1.55986000           0.40389000          -0.44486000         
C                    -0.56236000          -1.63836000           0.62053000         
C                    -1.21438000           1.34770000           0.43762000         
H                    -1.70182000          -1.65731000          -1.13020000         
H                    -2.10570000           0.70933000          -1.33942000         
H                    -0.10688000          -1.07967000           1.43580000         
H                    -0.41583000          -2.71792000           0.61119000         
H                    -1.46671000           2.39300000           0.26229000         
H                    -0.67591000           1.11096000           1.35516000         
C                     2.22061000          -0.17954000          -0.40027000         
C                     2.19811000           1.06123000           0.07819000         
H                     2.71147000          -0.99108000           0.13810000         
H                     1.74419000          -0.43185000          -1.34715000         
H                     1.70530000           1.86824000          -0.46428000         
H                     2.67088000           1.31488000           1.02864000         
16

C                    -0.18875000          -0.68942000          -0.44295000         
C                    -1.13719000           0.48915000          -0.45830000         
C                    -0.38900000          -1.62570000           0.76397000         
C                    -1.34338000           1.33143000           0.55566000         
H                    -0.39092000          -1.28365000          -1.34422000         
H                    -1.64998000           0.68135000          -1.40365000         
H                    -0.24413000          -1.06680000           1.70339000         
H                    -1.39158000          -2.06664000           0.75927000         
H                    -2.01091000           2.18287000           0.44910000         
H                    -0.85521000           1.19965000           1.52270000         
C                     1.27377000          -0.28100000          -0.48867000         
C                     1.79971000           0.87095000          -0.07815000         
H                     0.35282000          -2.43304000           0.74383000         
H                     1.94887000          -1.06670000          -0.83803000         
H                     1.18212000           1.69356000           0.27848000         
H                     2.87837000           1.02344000          -0.10353000         
16
DE: 79.26888256849064  DG: 88.80577194952508 DH: -20.11448374760994 (kcal/mol)
C                    -0.78228000          -0.87415600          -0.46692800         
C                    -1.28790200           0.46463100          -0.49387000         
C                    -0.23334300          -1.57425600           0.67608600         
C                    -1.14658900           1.39582600           0.48072800         
H                    -0.99260500          -1.47364500          -1.35556500         
H                    -1.77684100           0.76677900          -1.42236400         
H                    -0.44597900          -1.11486300           1.64659000         
H                    -0.44079100          -2.64901900           0.68053400         
H                    -1.55870800           2.39627100           0.35663000         
H                    -0.67618500           1.16278200           1.43531300         
C                     1.70488100          -0.29123300          -0.44192400         
C                     1.80049800           0.92221000           0.03490500         
H                     0.94534100          -1.48149800           0.57202100         
H                     1.02794300          -0.77193000          -1.17462500         
H                     1.09614200           1.71170800          -0.30876600         
H                     2.49009200           1.19528500           0.83623900         
