16

C                     1.05769000           1.11091000          -0.03440000         
C                     1.42508000          -0.29339000          -0.21230000         
C                    -0.05918000           1.65769000          -0.52283000         
C                     2.60410000          -0.80318000           0.16045000         
H                     1.76578000           1.73049000           0.52690000         
H                     0.68528000          -0.92978000          -0.70428000         
H                    -0.77639000           1.06114000          -1.08903000         
H                    -0.28344000           2.71414000          -0.37673000         
H                     2.84854000          -1.85188000          -0.00480000         
H                     3.35739000          -0.17980000           0.64425000         
C                    -2.28953000          -0.41372000           0.81601000         
C                    -2.56185000          -1.20081000          -0.22227000         
H                    -1.50047000          -0.66437000           1.52665000         
H                    -2.83481000           0.51325000           0.98959000         
H                    -3.34171000          -0.94638000          -0.94328000         
H                    -2.01933000          -2.13144000          -0.38663000         
16

C                     0.71035000           0.80671000          -0.17848000         
C                     1.39818000          -0.41577000           0.23381000         
C                    -0.60170000           1.05192000          -0.02873000         
C                     2.69513000          -0.64354000          -0.00276000         
H                     1.33147000           1.56234000          -0.65785000         
H                     0.81438000          -1.17806000           0.75629000         
H                    -2.07543000          -0.39112000          -1.53517000         
H                    -0.98530000           1.99787000          -0.42483000         
H                     3.18006000          -1.56584000           0.31814000         
H                     3.30673000           0.09369000          -0.52348000         
C                    -1.62855000           0.12272000           0.55109000         
C                    -2.29565000          -0.76614000          -0.52681000         
H                    -1.17635000          -0.50780000           1.32539000         
H                    -2.39261000           0.72539000           1.05786000         
H                    -3.38846000          -0.79622000          -0.41473000         
H                    -1.92177000          -1.79658000          -0.47455000         
16
DE: 91.98787262398109  DG: 100.54396465651276 DH: -24.82767686424474 (kcal/mol)
C                     0.87384300           0.95439400          -0.15229900         
C                     1.38832200          -0.40661800           0.03521700         
C                    -0.42670300           1.28383700          -0.13249000         
C                     2.69358300          -0.69995700           0.04706400         
H                     1.64632000           1.71705500          -0.32016600         
H                     0.66113500          -1.21081600           0.16638100         
H                    -1.31092900           0.09649500          -0.58108600         
H                    -0.73853200           2.32297900          -0.27482300         
H                     3.04792000          -1.71975600           0.19020500         
H                     3.44334100           0.08142800          -0.08846000         
C                    -1.88590400          -0.01515800           0.59674700         
C                    -2.30919800          -0.96544400          -0.37551600         
H                    -1.23127200          -0.33196800           1.40754600         
H                    -2.54010000           0.82095900           0.84084300         
H                    -3.16258200          -0.75052100          -1.01109100         
H                    -1.81896200          -1.93217700          -0.44168100         
