16

C                    -1.20995000           0.05516000           0.42636000         
C                    -0.58788000          -1.28584000           0.46931000         
C                    -2.16657000           0.46958000          -0.40327000         
C                     0.22753000          -1.81571000          -0.44486000         
H                    -0.88024000           0.73507000           1.21648000         
H                    -0.77333000          -1.84915000           1.38853000         
H                    -2.56670000          -0.18466000          -1.17916000         
H                    -2.58066000           1.47472000          -0.32535000         
H                     0.65560000          -2.81291000          -0.30522000         
H                     0.47756000          -1.27599000          -1.35819000         
C                     1.39653000           1.76164000           0.09233000         
C                     2.21068000           0.72611000          -0.09272000         
H                     1.20569000           2.16313000           1.08848000         
H                     0.88725000           2.24445000          -0.74167000         
H                     2.40989000           0.33185000          -1.08782000         
H                     2.70874000           0.23379000           0.74252000         
16

C                    -0.66222000           0.30105000           0.07415000         
C                    -0.45584000          -1.13853000           0.39675000         
C                    -1.89119000           0.74936000          -0.20786000         
C                     0.29056000          -1.95521000          -0.34709000         
H                     2.07021000          -0.29579000           0.37387000         
H                    -0.96502000          -1.53309000           1.28140000         
H                    -2.74809000           0.08023000          -0.21435000         
H                    -2.06704000           1.79905000          -0.44588000         
H                     0.41509000          -3.00038000          -0.08973000         
H                     0.79578000          -1.59564000          -1.25016000         
C                     0.52467000           1.24714000           0.19437000         
C                     1.92825000           0.69666000          -0.08143000         
H                     0.51110000           1.61061000           1.23396000         
H                     0.33313000           2.12728000          -0.43380000         
H                     2.13930000           0.62562000          -1.15869000         
H                     2.68011000           1.36719000           0.35945000         
16
DE: 88.29999929250009  DG: 96.95210027852121 DH: -24.880258126195024 (kcal/mol)
C                    -1.09058300           0.03917800           0.14727400         
C                    -0.53100500          -1.20317000           0.43205900         
C                    -2.13957900           0.74220100          -0.23464100         
C                     0.47455600          -1.75646000          -0.33297900         
H                     0.67947700           0.19836700           0.08320600         
H                    -0.65448000          -1.56670500           1.45844300         
H                    -3.08814600           0.26740900          -0.50666400         
H                    -2.10594500           1.83462600          -0.29512800         
H                     1.02088100          -2.62865100           0.02203000         
H                     0.56948400          -1.50304600          -1.38878000         
C                     0.89742900           1.45217900           0.15111400         
C                     1.97857700           0.56398000          -0.08002500         
H                     0.70037700           1.82404800           1.15311200         
H                     0.45191000           1.99426600          -0.67895300         
H                     2.31828600           0.36534200          -1.09191100         
H                     2.57178300           0.18689500           0.74783300         
