12

C                     0.77195000           0.09141000           0.51028000         
C                    -1.44467000           0.57344000          -0.17545000         
C                    -0.14005000           1.28419000           0.19748000         
O                    -0.08563000          -1.02972000           0.49320000         
O                    -1.03608000          -0.73682000          -0.52099000         
O                     1.77094000           0.01478000          -0.44942000         
H                     2.24332000          -0.81449000          -0.31974000         
H                     1.18340000           0.09530000           1.53023000         
H                    -1.94364000           0.98924000          -1.05557000         
H                    -2.14277000           0.53819000           0.67277000         
H                     0.29223000           1.83144000          -0.64570000         
H                    -0.25875000           1.95522000           1.05359000         
12

C                     0.27588000           0.24364000           1.03895000         
C                    -1.55570000           0.58246000          -0.25136000         
C                    -0.53920000           1.21994000           0.65838000         
O                    -0.01328000          -0.96288000           0.47996000         
O                    -0.96197000          -0.68369000          -0.55513000         
O                     2.34666000          -0.11279000          -0.98478000         
H                     1.86488000          -0.93131000          -0.80368000         
H                     1.12804000           0.22773000           1.71350000         
H                    -1.69955000           1.10143000          -1.20889000         
H                    -2.53151000           0.44817000           0.24086000         
H                     1.65536000           0.46198000          -1.32756000         
H                    -0.52379000           2.25223000           0.99109000         
12
DE: 72.08515381248972  DG: 66.82223163600817 DH: 16.513862332695982 (kcal/mol)
C                     0.59951600           0.02733300           0.70930100         
C                    -1.42871900           0.56459700          -0.21976100         
C                    -0.11413100           1.17687500           0.21503600         
O                    -0.07958400          -1.10871600           0.50523500         
O                    -1.07728300          -0.79860300          -0.47839500         
O                     1.87537600           0.09741900          -0.54084600         
H                     1.75967000          -0.64742000          -1.15118200         
H                     1.24793000          -0.03336900           1.58214800         
H                    -1.81707400           0.93462800          -1.17575900         
H                    -2.22566700           0.61030900           0.54238600         
H                     1.05729100           0.91294300          -0.72236100         
H                    -0.11021800           2.08927400           0.80936200         
