12

C                     1.07976000           0.40041000           0.53014000         
C                    -1.13659000           1.06729000          -0.33086000         
C                     0.19566000           1.20754000          -0.36555000         
O                     1.43839000          -0.86785000          -0.01279000         
O                     0.24242000          -1.51124000          -0.41535000         
O                    -1.82395000           0.25083000           0.48670000         
H                     0.33116000          -2.35792000           0.04824000         
H                    -1.20512000          -0.39423000           0.86422000         
H                     0.61098000           0.25284000           1.51928000         
H                     2.04797000           0.88648000           0.68943000         
H                    -1.79940000           1.65905000          -0.96880000         
H                     0.63316000           1.87723000          -1.10202000         
12

C                     1.50282000           0.53183000           0.44521000         
C                    -0.32975000           0.44485000          -0.89690000         
C                     0.50807000           1.32338000          -0.35749000         
O                     1.20735000          -0.83034000           0.09856000         
O                    -0.03802000          -0.84781000          -0.60992000         
O                    -2.40334000          -0.28831000           1.00489000         
H                    -1.77737000          -1.00381000           0.84897000         
H                    -1.82971000           0.45808000           1.19361000         
H                     1.38702000           0.67475000           1.53075000         
H                     2.54915000           0.72234000           0.16888000         
H                    -1.22920000           0.56810000          -1.49440000         
H                     0.46788000           2.40341000          -0.44565000         
12
DE: 70.78934669501538  DG: 68.62130137249602 DH: -0.39507648183556204 (kcal/mol)
C                     1.23137200           0.44671900           0.56680500         
C                    -0.73532600           0.49832500          -0.63043000         
C                     0.29908200           1.27552800          -0.26043100         
O                     1.23469800          -0.85232400          -0.06962600         
O                    -0.07769500          -1.11285200          -0.44775900         
O                    -1.73819900          -0.11368600           0.56223300         
H                    -0.94675400          -0.94539100           0.45587300         
H                    -1.59533700           0.46287200           1.32518000         
H                     0.92576600           0.30955700           1.62005500         
H                     2.26825700           0.79615600           0.54859200         
H                    -1.39969100           0.58008100          -1.48486100         
H                     0.62655400           2.10419000          -0.87929100         
