12

C                    -0.67060000          -0.67930000           0.46705000         
C                     1.74718000          -0.30607000           0.06568000         
C                     0.50936000           0.18797000           0.14966000         
O                    -1.76237000          -0.51140000          -0.41535000         
O                    -2.34613000           0.73043000          -0.04224000         
O                     2.88672000           0.39112000          -0.12690000         
H                    -3.00163000           0.82531000          -0.74404000         
H                     2.67767000           1.33086000          -0.19820000         
H                    -1.03695000          -0.49497000           1.48739000         
H                    -0.40476000          -1.73982000           0.38048000         
H                     1.94778000          -1.37494000           0.15920000         
H                     0.32475000           1.26454000           0.06633000         
12

C                    -0.50095000          -0.82236000          -0.03076000         
C                     1.79757000          -0.18056000           0.30848000         
C                     0.65050000           0.00874000          -0.36763000         
O                    -1.51415000          -0.90114000          -0.68235000         
O                    -2.82833000           1.18739000           0.56597000         
O                     2.97739000           0.39048000           0.07116000         
H                    -3.44577000           1.47477000           1.24032000         
H                     2.90709000           0.99956000          -0.67201000         
H                    -3.02777000           0.25534000           0.40252000         
H                    -0.36655000          -1.43762000           0.89223000         
H                     1.84774000          -0.87534000           1.15021000         
H                     0.56627000           0.68055000          -1.22498000         
12
DE: 65.94434584547741  DG: 59.94347249700418 DH: -65.2588432122371 (kcal/mol)
C                    -0.67415400          -0.57376200           0.19749300         
C                     1.77976200          -0.23493200           0.28110700         
C                     0.58641600           0.08817200          -0.22654100         
O                    -1.68755200          -0.57829600          -0.63172800         
O                    -2.52162000           0.70812800           0.29062000         
O                     2.96469400           0.33019000          -0.03103200         
H                    -3.46547600           0.96890300           0.32510200         
H                     2.82513400           1.02210400          -0.68576300         
H                    -1.34155100           0.26061100           0.92665200         
H                    -0.59248200          -1.46068800           0.84897800         
H                     1.89638400          -1.02510400           1.02519900         
H                     0.48167300           0.87713500          -0.97541000         
