12

C                     0.63801000          -0.44227000          -0.25930000         
C                    -1.79784000          -0.33505000           0.18443000         
C                    -0.68420000           0.25062000          -0.26745000         
O                     1.61259000           0.44235000           0.27131000         
O                     2.87095000          -0.10131000          -0.07444000         
O                    -3.05338000           0.14300000           0.09585000         
H                     3.25531000          -0.26230000           0.79357000         
H                    -3.03637000           1.00915000          -0.32244000         
H                     0.59603000          -1.37242000           0.33070000         
H                     0.94793000          -0.69888000          -1.28337000         
H                    -1.77612000          -1.31499000           0.66429000         
H                    -0.72804000           1.22873000          -0.75272000         
12

C                     0.57965000          -0.20244000           0.14339000         
C                    -1.87471000          -0.41092000           0.45798000         
C                    -0.60779000           0.37722000           0.31112000         
O                     1.72602000           0.52902000           0.12362000         
O                     2.75622000          -0.25891000          -0.43216000         
O                    -2.87276000           0.00964000          -0.44482000         
H                     3.48497000          -0.05068000           0.16722000         
H                    -2.48371000          -0.01414000          -1.32836000         
H                    -1.65217000          -1.48809000           0.35893000         
H                     0.73789000          -1.27733000           0.05383000         
H                    -2.29998000          -0.26298000           1.45953000         
H                    -0.67379000           1.46517000           0.38023000         
12
DE: 73.87041834001244  DG: 70.3005167945011 DH: 2.8728489483747635 (kcal/mol)
C                     0.51029700          -0.15922500          -0.11657300         
C                    -1.65476900          -0.20086500           0.34849500         
C                    -0.62574400           0.66746900          -0.07517700         
O                     1.68509100           0.33943600           0.38339500         
O                     2.77378300          -0.23014800          -0.31643900         
O                    -2.91196600          -0.17887000          -0.16579400         
H                     3.30333500          -0.56918500           0.41670400         
H                    -2.86569100           0.16085900          -1.06491400         
H                    -0.50819400          -1.17870400           0.32154500         
H                     0.68450700          -0.89308100          -0.90577300         
H                    -1.68025500          -0.54103400           1.38468600         
H                    -0.68766400           1.73353100          -0.30201100         
