12

C                    -0.69484000           0.38651000          -0.44896000         
C                     1.71505000          -0.18880000          -0.41521000         
C                     0.69097000           0.50291000           0.09206000         
O                    -1.48763000          -0.22789000           0.55846000         
O                    -2.82727000          -0.18454000           0.10889000         
O                     2.99130000          -0.16022000           0.01020000         
H                    -3.02474000          -1.12605000           0.02571000         
H                     3.06357000           0.42886000           0.76828000         
H                    -0.71070000          -0.22247000          -1.36659000         
H                    -1.12765000           1.37103000          -0.67830000         
H                     1.59235000          -0.86018000          -1.26621000         
H                     0.83880000           1.15503000           0.95725000         
12

C                    -1.57923000           0.47633000          -0.36438000         
C                     1.65165000          -0.46749000          -0.02856000         
C                     0.63187000           0.32231000           0.31592000         
O                    -0.63084000          -0.18359000           0.45455000         
O                    -2.82028000          -0.07550000          -0.16359000         
O                     2.94642000          -0.09275000          -0.13599000         
H                    -2.77836000          -1.00719000          -0.40312000         
H                     3.03011000           0.84580000           0.06331000         
H                    -1.23787000           0.39931000          -1.41403000         
H                    -1.64516000           1.54011000          -0.08770000         
H                     1.49170000          -1.52650000          -0.23081000         
H                     0.76354000           1.38949000           0.52992000         
12
DE: 82.46918101848988  DG: 79.27076509700372 DH: -50.368068833652 (kcal/mol)
C                    -0.85817400           0.51071100          -0.51895100         
C                     1.53333500          -0.32521600          -0.25304600         
C                     0.54243000           0.52488100           0.18268700         
O                    -0.77654300          -0.27278500           0.55741000         
O                    -2.84380600          -0.22507000           0.03665300         
O                     2.81901800          -0.21382000           0.01235200         
H                    -3.63528900          -0.77891900           0.03394100         
H                     2.99234500           0.55226700           0.57487200         
H                    -0.91690800           0.03459800          -1.49943300         
H                    -1.38720900           1.46085400          -0.41193900         
H                     1.28907700          -1.19658000          -0.86276400         
H                     0.76308200           1.35892200           0.84986300         
