12

C                    -1.71833000           0.21756000           0.16431000         
C                     0.51588000           0.91285000           0.27883000         
C                     1.30524000          -0.20949000          -0.37792000         
O                    -0.74093000           1.08934000          -0.31172000         
O                    -1.37622000          -1.12366000           0.00139000         
O                     2.23123000          -0.75028000           0.15372000         
H                    -1.02544000          -1.47910000           0.83361000         
H                    -2.61454000           0.42485000          -0.43096000         
H                    -1.91926000           0.43603000           1.22783000         
H                     1.08650000           1.84172000           0.13064000         
H                     0.46116000           0.71791000           1.35949000         
H                     0.97702000          -0.45448000          -1.41157000         
12

C                    -2.13591000           0.26289000          -0.13363000         
C                     1.12234000           0.62092000           1.13322000         
C                     1.91747000          -0.08315000           0.35093000         
O                    -1.24865000           0.95874000          -0.96457000         
O                    -1.67463000          -1.01059000           0.17904000         
O                     2.60492000          -0.70030000          -0.34494000         
H                    -0.83609000          -0.90821000           0.64390000         
H                    -3.11701000           0.12997000          -0.61512000         
H                    -2.25826000           0.89519000           0.75825000         
H                     0.39108000           1.25568000           0.63342000         
H                     1.25162000           0.58857000           2.21143000         
H                    -1.14139000           0.44259000          -1.77087000         
12
DE: 92.96929748198228  DG: 87.80112923997551 DH: 9.100382409177811 (kcal/mol)
C                    -1.87887400           0.25585800          -0.10892900         
C                     0.78387400           0.69853800           0.66393500         
C                     1.59792600          -0.11979900          -0.23491900         
O                    -0.59515700           0.78265400          -0.45901900         
O                    -1.86180800          -1.10103900           0.11575100         
O                     2.70242300          -0.58133300          -0.14054300         
H                    -1.45084400          -1.30078400           0.96163400         
H                    -2.54276500           0.44540900          -0.95781600         
H                    -2.21030000           0.84345300           0.75790100         
H                     0.94674200           1.77617800           0.72359900         
H                     0.27859600           0.25528900           1.52787400         
H                    -0.00264500           0.17061900          -1.06323200         
