12

C                     1.36982000          -0.22767000           0.33202000         
C                    -0.77810000          -1.20133000          -0.03745000         
C                    -1.63030000           0.02482000           0.18190000         
O                     0.50009000          -0.96077000          -0.51548000         
O                     1.56341000           1.06363000          -0.09587000         
O                    -1.23529000           1.15933000           0.11838000         
H                     0.69159000           1.48374000          -0.10566000         
H                     2.34390000          -0.72834000           0.30103000         
H                     0.96867000          -0.27683000           1.36301000         
H                    -1.30286000          -1.83958000          -0.76359000         
H                    -0.78587000          -1.75946000           0.92085000         
H                    -2.69372000          -0.19210000           0.43485000         
12

C                     2.24370000          -0.06088000           0.30209000         
C                    -1.00972000          -1.19727000           0.09857000         
C                    -1.81151000           0.05574000           0.34902000         
O                    -0.00482000          -0.96951000          -0.83559000         
O                     2.03953000           1.10770000           0.44435000         
O                    -1.57938000           1.07015000          -0.25148000         
H                    -0.11972000          -0.05323000          -1.12925000         
H                     2.69438000          -0.47496000          -0.63055000         
H                     2.00377000          -0.81418000           1.08489000         
H                    -1.70915000          -1.98946000          -0.22581000         
H                    -0.59650000          -1.52268000           1.07047000         
H                    -2.62264000          -0.00584000           1.10443000         
12
DE: 51.44448382898885  DG: 46.126340816468364 DH: 12.6199808795411 (kcal/mol)
C                     1.80896800          -0.26150800           0.29597300         
C                    -0.79111600          -1.07818000           0.04973200         
C                    -1.78862000           0.04924200           0.20911400         
O                     0.37361900          -0.62329600          -0.58000800         
O                     1.73133800           0.98819700           0.03621300         
O                    -1.53799500           1.18160600          -0.08576300         
H                     0.61107900           0.53189700          -0.52670300         
H                     2.54968200          -0.89674200          -0.22023900         
H                     1.54320300          -0.64659700           1.30235600         
H                    -1.25849600          -1.89029200          -0.52848900         
H                    -0.57927900          -1.48072600           1.05579800         
H                    -2.77727600          -0.24691900           0.62482800         
