12

C                    -1.08690000          -0.74779000           0.51025000         
C                     1.23246000          -0.72817000          -0.07570000         
C                     1.44556000           0.76865000          -0.01486000         
O                    -0.04880000          -1.17185000          -0.35923000         
O                    -1.86588000           0.24122000          -0.04234000         
O                     0.57082000           1.60055000          -0.04745000         
H                    -1.29195000           1.00948000          -0.16644000         
H                    -0.63056000          -0.43540000           1.47195000         
H                    -1.73300000          -1.61883000           0.68230000         
H                     1.62691000          -1.12497000           0.88465000         
H                     1.90503000          -1.11624000          -0.84434000         
H                     2.50654000           1.07585000           0.10081000         
12

C                    -1.17502000          -0.73071000           0.24500000         
C                     1.71591000           0.02047000           0.64887000         
C                     0.94052000          -0.06799000          -0.59438000         
O                    -0.17584000          -0.84503000          -0.75304000         
O                    -1.88183000           0.44915000           0.16167000         
O                     0.83614000           1.07095000           0.22320000         
H                    -1.27127000           1.15711000           0.40106000         
H                    -0.71897000          -0.86958000           1.24054000         
H                    -1.86663000          -1.55492000           0.04966000         
H                     1.39066000          -0.53572000           1.53073000         
H                     2.77936000           0.26896000           0.61090000         
H                     1.43449000           0.08641000          -1.55578000         
12
DE: 86.99540704201225  DG: 86.32648191498897 DH: 13.146510516252388 (kcal/mol)
C                    -1.15485300          -0.65297800           0.33773400         
C                     1.79683900          -0.51482800           0.36963000         
C                     0.93629000           0.29860500          -0.47201500         
O                    -0.05645100          -0.83243100          -0.56062900         
O                    -1.94311500           0.39901800          -0.05718900         
O                     0.61721800           1.34037200           0.23017200         
H                    -1.38321500           1.18389300           0.06348600         
H                    -0.76912400          -0.51190100           1.36093300         
H                    -1.73508800          -1.57951500           0.28413200         
H                     1.42786100          -0.63435900           1.38734600         
H                     2.77609100          -0.93101100           0.10979800         
H                     1.27260200           0.43241900          -1.51662400         
