12

C                    -1.49570000          -0.61730000          -0.05898000         
C                    -0.04755000           1.18174000           0.41590000         
C                     1.38964000           0.74536000           0.22207000         
O                    -0.92568000           0.59274000          -0.49027000         
O                    -0.54936000          -1.51244000           0.40846000         
O                     1.73851000          -0.16373000          -0.48625000         
H                     0.15159000          -1.56932000          -0.25305000         
H                    -2.04983000          -0.98926000          -0.93197000         
H                    -2.19360000          -0.43960000           0.77376000         
H                    -0.07937000           2.27141000           0.27774000         
H                    -0.31613000           0.97601000           1.46818000         
H                     2.13476000           1.35008000           0.78691000         
12

C                    -1.37303000          -0.55873000           0.07307000         
C                    -0.06615000           1.20746000           0.23781000         
C                     0.82593000          -0.02118000           0.44731000         
O                    -1.12293000           0.67289000          -0.53443000         
O                    -0.11371000          -1.07763000           0.44416000         
O                     1.77182000          -0.17346000          -0.55479000         
H                     1.29837000          -0.22590000          -1.39363000         
H                    -1.86672000          -1.22665000          -0.64017000         
H                    -1.99937000          -0.42944000           0.97451000         
H                     0.44284000           1.99604000          -0.32322000         
H                    -0.44049000           1.60359000           1.19661000         
H                     1.37365000          -0.01341000           1.39589000         
12
DE: 35.94562668848995  DG: 35.54402060846949 DH: -7.884560229445515 (kcal/mol)
C                    -1.32790500          -0.59661700          -0.01436200         
C                    -0.07075200           1.24339000           0.26955300         
C                     1.00813100           0.17675400           0.44229000         
O                    -1.06759500           0.66588200          -0.54445400         
O                    -0.09100000          -1.17013200           0.35057800         
O                     1.66811400          -0.22785400          -0.58508100         
H                     0.71226400          -1.11650300          -0.51248500         
H                    -1.82664000          -1.20158200          -0.77800000         
H                    -1.94563300          -0.53241300           0.89622100         
H                     0.34765300           2.10929700          -0.25302300         
H                    -0.48181700           1.54844200           1.24715300         
H                     1.46117600           0.10842800           1.44691200         
