12

C                     1.82566000           0.50188000          -0.20175000         
C                    -0.45123000          -0.00812000          -0.44044000         
C                    -1.71812000          -0.02766000           0.37773000         
O                     0.52171000           0.73088000           0.25419000         
O                     2.25605000          -0.79863000           0.04817000         
O                    -2.79092000          -0.31642000          -0.07005000         
H                     2.32236000          -0.91723000           0.99983000         
H                     2.44853000           1.25038000           0.30297000         
H                     1.88391000           0.64213000          -1.29155000         
H                    -0.66620000           0.41091000          -1.43630000         
H                    -0.12493000          -1.05394000          -0.56881000         
H                    -1.56264000           0.21504000           1.45584000         
12

C                     1.66178000           0.35234000          -0.02560000         
C                    -0.63730000           0.19073000          -0.44096000         
C                    -2.01122000           0.59521000          -0.16237000         
O                     0.36150000           0.73351000           0.33858000         
O                     1.85072000          -1.01994000           0.01789000         
O                    -1.50919000          -0.69454000           0.19156000         
H                     1.64305000          -1.32418000           0.90891000         
H                     2.31862000           0.90030000           0.66353000         
H                     1.87816000           0.65896000          -1.05895000         
H                    -2.76094000           0.60942000          -0.95597000         
H                    -0.31270000          -0.10301000          -1.44363000         
H                    -2.17493000           1.27395000           0.67699000         
12
DE: 79.04674420549861  DG: 75.62242486397642 DH: 13.146510516252388 (kcal/mol)
C                     1.88657400           0.41367700          -0.02916200         
C                    -0.45676800           0.10897500          -0.26135900         
C                    -1.88415400           0.36482000          -0.06426600         
O                     0.50101900           0.78569100           0.26590700         
O                     2.06066800          -0.93646400          -0.07501800         
O                    -2.52111000          -0.73495800           0.17785700         
H                     2.05534700          -1.31014300           0.81345000         
H                     2.45192200           0.91996300           0.75977900         
H                     2.12374300           0.83190900          -1.01193900         
H                    -1.97579600           0.85295800          -1.14119500         
H                    -0.20770900          -0.80748900          -0.80994100         
H                    -2.04603200           1.27381800           0.56859400         
