12

C                    -1.29605000           0.04192000          -0.69894000         
C                     0.74700000           1.03553000          -0.02398000         
C                     1.22581000          -0.27595000           0.57082000         
O                    -0.65552000           1.12819000          -0.08701000         
O                    -1.75671000          -0.88311000           0.23077000         
O                     2.03794000          -0.96751000           0.01980000         
H                    -2.46178000          -0.47124000           0.73953000         
H                    -0.60144000          -0.49553000          -1.36644000         
H                    -2.12345000           0.46283000          -1.29372000         
H                     1.21210000           1.13225000          -1.01676000         
H                     1.09432000           1.85868000           0.61300000         
H                     0.76258000          -0.56483000           1.53953000         
12

C                    -0.66734000          -0.21924000          -0.32710000         
C                     0.70791000           1.24061000           0.17740000         
C                     0.71228000          -0.28590000           0.36989000         
O                    -0.65760000           1.20637000          -0.25116000         
O                    -1.77191000          -0.78399000           0.25616000         
O                     1.72913000          -1.04178000          -0.20077000         
H                    -1.88707000          -0.38097000           1.12388000         
H                     1.80623000          -0.80258000          -1.13021000         
H                    -0.63532000          -0.58810000          -1.36511000         
H                     1.39265000           1.56562000          -0.62210000         
H                     0.85478000           1.87516000           1.06040000         
H                     0.62035000          -0.59584000           1.41856000         
12
DE: 92.34304300099394  DG: 90.05765340198549 DH: 7.277485659655834 (kcal/mol)
C                    -0.80579700          -0.20806800          -0.44449900         
C                     0.72840100           1.22459400           0.10766800         
C                     0.91433200          -0.26318400           0.41064600         
O                    -0.67041800           1.15147900          -0.14857400         
O                    -1.84128600          -0.81016300           0.19058700         
O                     1.81361500          -1.02791600          -0.17638300         
H                    -1.86916800          -0.48614100           1.09882700         
H                     0.50458700          -0.99754800          -0.51157000         
H                    -0.88615100          -0.42046600          -1.52497500         
H                     1.30254000           1.49408500          -0.78911900         
H                     0.94866400           1.91591900           0.92897900         
H                     0.56261800          -0.53309700           1.42993300         
