17

C                     0.30411000          -0.66804000           0.16449000         
C                    -0.91152000           0.22065000          -0.05672000         
C                    -2.22850000          -0.51480000           0.18005000         
C                    -3.44132000           0.35897000          -0.12268000         
C                     1.61148000           0.08485000          -0.00195000         
O                     2.70339000          -0.69364000          -0.12668000         
O                     1.70762000           1.27477000          -0.01132000         
H                     2.45893000          -1.62608000          -0.09526000         
H                     0.29164000          -1.52277000          -0.53425000         
H                     0.29647000          -1.09550000           1.18280000         
H                    -0.83460000           1.09275000           0.60558000         
H                    -0.88196000           0.61261000          -1.08054000         
H                    -2.26074000          -1.41857000          -0.44780000         
H                    -2.26928000          -0.86099000           1.22309000         
H                    -3.43643000           0.68347000          -1.17354000         
H                    -3.43582000           1.26198000           0.50380000         
H                    -4.37984000          -0.17788000           0.06329000         
17

C                    -0.15024000          -1.24849000           0.59445000         
C                    -1.08386000          -0.29775000          -0.15406000         
C                    -2.52035000          -0.40733000           0.35034000         
C                    -3.48212000           0.54450000          -0.35096000         
C                     2.38984000           0.46737000          -0.14629000         
O                     2.94992000          -0.44982000          -0.57385000         
O                     1.82890000           1.38340000           0.28205000         
H                     0.80172000          -1.40814000           0.07299000         
H                    -0.61811000          -2.23702000           0.70020000         
H                     0.06694000          -0.87647000           1.60514000         
H                    -0.73263000           0.73906000          -0.05225000         
H                    -1.06969000          -0.52909000          -1.23027000         
H                    -2.85996000          -1.44424000           0.21092000         
H                    -2.53691000          -0.22269000           1.43526000         
H                    -3.47428000           0.37834000          -1.43680000         
H                    -3.20084000           1.59033000          -0.17157000         
H                    -4.51051000           0.40605000           0.00314000         
17
DE: 77.41333697698487  DG: 72.41208626198471 DH: -6.915152963671139 (kcal/mol)
C                     0.39792900          -0.75131300           0.41853300         
C                    -0.75083100           0.03272400          -0.19545400         
C                    -2.12191800          -0.42854100           0.29801400         
C                    -3.25777100           0.39697100          -0.29810600         
C                     1.96011000           0.22123500           0.00621400         
O                     2.71944000          -0.63652700          -0.49175700         
O                     1.87485800           1.35988000           0.27661000         
H                     1.53133300          -1.12954500          -0.20324600         
H                     0.27885100          -1.83738100           0.19713200         
H                     0.44168000          -0.67956400           1.51144300         
H                    -0.60712100           1.09378500           0.05105300         
H                    -0.70944300          -0.04501300          -1.29242300         
H                    -2.26252700          -1.49092100           0.04813300         
H                    -2.14779600          -0.36165700           1.39587900         
H                    -3.26314400           0.32164600          -1.39372700         
H                    -3.14722700           1.45770100          -0.03676800         
H                    -4.23410300           0.05767800           0.06848400         
