17

C                    -0.82717000           1.00649000          -0.16636000         
C                     0.53680000           1.31618000           0.47394000         
C                     1.78435000           0.84102000          -0.30654000         
C                     2.50654000          -0.35503000           0.31537000         
C                    -1.27936000          -0.43664000          -0.06781000         
O                    -0.44621000          -1.34496000          -0.62578000         
O                    -2.29676000          -0.78888000           0.44763000         
H                     1.85793000          -1.23935000           0.38392000         
H                    -0.80482000           1.28768000          -1.23052000         
H                    -1.61510000           1.59660000           0.31226000         
H                     0.58361000           2.40350000           0.58672000         
H                     0.55474000           0.89630000           1.49427000         
H                     1.52026000           0.63442000          -1.35909000         
H                     2.49282000           1.67825000          -0.37000000         
H                     2.83257000          -0.10882000           1.33533000         
H                     3.39832000          -0.62423000          -0.26743000         
H                     0.31206000          -0.90193000          -1.01797000         
17

C                    -1.23958000           1.27163000           0.29151000         
C                     0.22376000           1.69143000           0.21834000         
C                     0.77513000           0.68398000          -0.79124000         
C                     3.10436000          -1.59656000           0.71416000         
C                    -1.19339000          -0.21137000          -0.03138000         
O                     0.01006000          -0.50604000          -0.57960000         
O                    -2.04497000          -1.03328000           0.13489000         
H                     3.50920000          -2.37114000           1.37581000         
H                    -1.85249000           1.75828000          -0.47315000         
H                    -1.72379000           1.41841000           1.26462000         
H                     0.37719000           2.72845000          -0.10490000         
H                     0.71465000           1.55676000           1.18975000         
H                     0.62294000           1.02029000          -1.82637000         
H                     1.83084000           0.44287000          -0.64683000         
H                     3.11760000          -0.63822000           1.24771000         
H                     3.73431000          -1.52807000          -0.18235000         
H                     2.07739000          -1.85541000           0.43444000         
17
DE: 107.1673274290195  DG: 102.58901811698594 DH: 13.175191204588897 (kcal/mol)
C                    -1.14535800           1.09464700           0.00232300         
C                     0.28222500           1.45331300           0.34905400         
C                     1.32169600           0.82295500          -0.48784800         
C                     2.49453700          -1.01546100           0.32765600         
C                    -1.30160800          -0.45613500          -0.05322400         
O                    -0.22201700          -1.01516100          -0.43171600         
O                    -2.37389300          -0.95113700           0.23059100         
H                     2.22473100          -2.06131200           0.51697500         
H                    -1.41131700           1.48955000          -0.98846600         
H                    -1.85577800           1.50283200           0.72771400         
H                     0.49150400           2.53228200           0.18604400         
H                     0.51228600           1.28356400           1.41133100         
H                     1.07904700           0.55266800          -1.51453300         
H                     2.34127300           1.16578500          -0.31690800         
H                     2.78176500          -0.50536700           1.24939300         
H                     3.25733700          -0.93573200          -0.44913300         
H                     1.43748400          -0.68979400          -0.04118400         
