17

C                     0.12178000          -1.13817000          -0.40725000         
C                     1.41104000          -0.74498000           0.31413000         
C                     2.03146000           0.54989000          -0.21553000         
C                     1.09744000           1.75891000          -0.17437000         
C                    -1.07787000          -0.38481000           0.11058000         
O                    -1.96186000          -0.09026000          -0.85653000         
O                    -1.26752000          -0.08654000           1.25824000         
H                    -2.70508000           0.35467000          -0.42294000         
H                    -0.10217000          -2.20267000          -0.23360000         
H                     0.19367000          -0.99687000          -1.49342000         
H                     1.18455000          -0.64625000           1.38300000         
H                     2.13932000          -1.55725000           0.21002000         
H                     2.93545000           0.76661000           0.37297000         
H                     2.36829000           0.38615000          -1.25049000         
H                     0.70454000           1.92213000           0.83695000         
H                     0.23925000           1.62597000          -0.84893000         
H                     1.62245000           2.66739000          -0.49445000         
17

C                     0.13568000          -1.21752000          -0.34453000         
C                     1.51418000          -0.92774000           0.25313000         
C                     1.75947000           0.57880000          -0.02860000         
C                     0.38143000           1.16549000          -0.40789000         
C                    -0.63076000           0.06398000          -0.06299000         
O                    -1.80300000           0.11528000          -0.82419000         
O                    -0.90660000           0.06655000           1.31865000         
H                    -2.11960000           1.02266000          -0.83809000         
H                    -0.37429000          -2.08068000           0.09822000         
H                     0.18177000          -1.34869000          -1.43339000         
H                     1.47431000          -1.09977000           1.33421000         
H                     2.30119000          -1.56698000          -0.16260000         
H                     2.18546000           1.07928000           0.84845000         
H                     2.47366000           0.71988000          -0.85254000         
H                    -1.21137000           0.94165000           1.57069000         
H                     0.32031000           1.35228000          -1.49054000         
H                     0.14612000           2.10682000           0.11364000         
17
DE: 81.80464845799118  DG: 80.1561810014798 DH: 7.038240917782021 (kcal/mol)
C                     0.10720000          -1.23137000          -0.30901000         
C                     1.46368200          -0.87598800           0.27748900         
C                     1.79145200           0.52449300          -0.26463100         
C                     0.53642900           1.37954200          -0.11370700         
C                    -0.87267800          -0.13662100           0.03434800         
O                    -1.81892600           0.03659400          -0.88936200         
O                    -1.21507900           0.10411700           1.28214800         
H                    -2.52942300           0.52690600          -0.45036300         
H                    -0.31804500          -2.14895100           0.12212700         
H                     0.15361400          -1.33711100          -1.40010900         
H                     1.37650900          -0.84668600           1.37275200         
H                     2.22733300          -1.61860800           0.01743300         
H                     2.65979800           0.95078500           0.25354600         
H                     2.06329600           0.43614100          -1.32540400         
H                    -0.35036800           0.91870200           0.90423800         
H                     0.17954600           1.85676300          -1.02982100         
H                     0.65327300           2.17602900           0.64637200         
