17

C                    -1.83319000          -0.32787000           0.49244000         
C                     2.39115000          -1.02206000           0.09984000         
C                    -3.06409000          -0.29196000          -0.41437000         
C                     0.50211000           0.42103000          -0.02124000         
C                    -0.80309000           0.69791000           0.11086000         
O                     0.99181000          -0.81321000           0.18175000         
O                     1.46054000           1.31359000          -0.36637000         
H                     1.04917000           2.17417000          -0.48694000         
H                    -1.12541000           1.72459000          -0.07651000         
H                    -1.36792000          -1.32022000           0.45585000         
H                    -2.15565000          -0.17262000           1.53386000         
H                     2.76379000          -0.83850000          -0.91488000         
H                     2.55010000          -2.06925000           0.37167000         
H                     2.92926000          -0.37639000           0.80381000         
H                    -2.78452000          -0.47058000          -1.46104000         
H                    -3.79705000          -1.05289000          -0.11875000         
H                    -3.55862000           0.68712000          -0.36237000         
17

C                    -2.31463000           0.22414000           0.63403000         
C                     3.23884000           0.32607000          -0.19901000         
C                    -3.31146000          -0.08378000          -0.48636000         
C                    -0.03902000          -0.58808000           0.06779000         
C                    -0.89492000           0.41480000           0.13776000         
O                     0.66784000          -1.51103000           0.04293000         
O                     2.05762000           1.10112000          -0.15562000         
H                     1.82369000           1.26508000           0.76344000         
H                    -0.55294000           1.34263000          -0.33545000         
H                    -2.33579000          -0.57881000           1.37906000         
H                    -2.61401000           1.14302000           1.16133000         
H                     3.54228000           0.23777000          -1.23865000         
H                     3.07139000          -0.71064000           0.18554000         
H                     4.05870000           0.80111000           0.35279000         
H                    -3.06327000          -1.03290000          -0.98320000         
H                    -4.33420000          -0.15820000          -0.08633000         
H                    -3.30609000           0.70598000          -1.24625000         
17
DE: 80.78055295400854  DG: 78.54536411501603 DH: 12.577915869980874 (kcal/mol)
C                    -1.98574900          -0.11143100           0.61565700         
C                     2.83630300          -0.46434900           0.01197700         
C                    -2.97458700          -0.24785800          -0.54656900         
C                     0.40541400           0.14631900           0.00860400         
C                    -0.78192300           0.72375200           0.28221000         
O                     0.83793100          -1.04169400          -0.01008700         
O                     1.53434900           0.97441600          -0.30657700         
H                     1.53318300           1.79869500           0.20291000         
H                    -0.88985200           1.80118500           0.15672200         
H                    -1.63469000          -1.10861800           0.91420100         
H                    -2.50847500           0.31700300           1.48445200         
H                     2.87085100          -1.10946900          -0.85866200         
H                     2.78760800          -0.97042500           0.97083200         
H                     3.53379500           0.37078900          -0.02780000         
H                    -2.48505900          -0.72418400          -1.40544100         
H                    -3.84693900          -0.85296400          -0.26397100         
H                    -3.33540500           0.73761300          -0.87121000         
