17

C                     1.66380000           0.68238000          -0.33156000         
C                    -1.27101000           1.56145000           0.21076000         
C                     2.07474000           0.44851000           1.13061000         
C                    -0.49169000          -0.64035000          -0.30589000         
C                     0.71792000          -0.39135000          -0.81201000         
O                    -1.24794000           0.17007000           0.47532000         
O                    -1.12031000          -1.81872000          -0.50692000         
H                    -2.05177000          -1.68869000          -0.29640000         
H                     1.10434000          -1.17556000          -1.46107000         
H                     2.55898000           0.66251000          -0.96559000         
H                     1.25056000           1.69308000          -0.44177000         
H                    -0.49333000           2.08615000           0.77990000         
H                    -2.25154000           1.92959000           0.52981000         
H                    -1.12992000           1.74805000          -0.86171000         
H                     1.19052000           0.43973000           1.78155000         
H                     2.56905000          -0.52684000           1.23314000         
H                     2.76461000           1.22441000           1.49063000         
17

C                     1.55875000           0.95247000          -1.22871000         
C                    -1.20463000           1.64057000           0.22937000         
C                     0.89856000          -0.43205000           1.38004000         
C                    -0.00438000          -0.48313000           0.15540000         
C                     0.66619000          -0.02915000          -1.12577000         
O                    -1.19693000           0.24804000           0.41605000         
O                    -0.41924000          -1.79504000          -0.08267000         
H                    -0.99163000          -2.04476000           0.65715000         
H                     0.30140000          -0.55283000          -2.01285000         
H                     1.95434000           1.24122000          -2.20542000         
H                     1.93663000           1.49908000          -0.35714000         
H                    -0.35870000           2.13491000           0.73196000         
H                    -2.13256000           2.00961000           0.67641000         
H                    -1.18339000           1.91662000          -0.83308000         
H                     1.28064000           0.57348000           1.58262000         
H                     1.74265000          -1.10770000           1.23788000         
H                     0.30491000          -0.74855000           2.25243000         
17
DE: 97.03116647553561  DG: 95.48937563400459 DH: -1.2985181644359447 (kcal/mol)
C                     1.51032700           0.87699500          -0.88739500         
C                    -1.34267900           1.58493600           0.14267800         
C                     1.66986500          -0.23344900           1.45112400         
C                    -0.38072300          -0.59598100          -0.17767400         
C                     0.68763500          -0.22478700          -1.01102200         
O                    -1.28850100           0.19487200           0.41638500         
O                    -0.82026800          -1.85869000          -0.24231600         
H                    -1.62945600          -1.91290800           0.27973800         
H                     1.06209200          -1.07696500          -1.57958100         
H                     2.41567000           0.91763500          -1.49060300         
H                     1.22414900           1.80294200          -0.39981500         
H                    -0.60323600           2.13284500           0.73939600         
H                    -2.34511800           1.91166900           0.43159800         
H                    -1.17648300           1.77291200          -0.92462000         
H                     0.94520500           0.54512600           1.30341200         
H                     2.04189000          -0.88026200           0.67928900         
H                     2.06888500          -0.34873700           2.46237100         
