17

C                    -1.79948000          -0.61719000           0.43316000         
C                     1.77095000           1.82314000           0.13799000         
C                    -2.98137000          -0.04937000          -0.36027000         
C                     0.63722000          -0.25248000          -0.01670000         
C                    -0.56605000           0.23823000           0.31265000         
O                     1.79541000           0.43680000          -0.12742000         
O                     0.85340000          -1.55536000          -0.28538000         
H                     1.78782000          -1.64909000          -0.50199000         
H                    -0.66422000           1.30317000           0.50353000         
H                    -1.56718000          -1.63775000           0.09402000         
H                    -2.09069000          -0.70082000           1.49196000         
H                     1.38661000           2.02145000           1.14967000         
H                     1.14563000           2.34295000          -0.59861000         
H                     2.80450000           2.17226000           0.06184000         
H                    -3.23542000           0.95960000          -0.01692000         
H                    -2.73893000           0.01200000          -1.42113000         
H                    -3.87559000          -0.67286000          -0.24559000         
17

C                    -1.42835000          -0.25030000          -0.33771000         
C                     0.08927000           1.80243000          -0.17469000         
C                    -2.71936000           0.48186000           0.02024000         
C                     1.06945000          -0.45494000           0.11343000         
C                    -0.18376000           0.37918000           0.30435000         
O                     2.18754000          -0.01550000           0.06405000         
O                     0.82977000          -1.77348000           0.03132000         
H                     1.69469000          -2.20385000          -0.04132000         
H                    -0.34242000           0.39085000           1.39502000         
H                    -1.29648000          -0.26292000          -1.42021000         
H                    -1.49319000          -1.30880000          -0.03057000         
H                    -0.76737000           2.45458000           0.02008000         
H                     0.29899000           1.81469000          -1.25348000         
H                     0.96609000           2.21444000           0.33443000         
H                    -2.85709000           0.50885000           1.13180000         
H                    -2.72375000           1.50528000          -0.35957000         
H                    -3.58904000          -0.03703000          -0.40421000         
17
DE: 74.14087493450732  DG: 72.18304529452793 DH: -38.03728489483747 (kcal/mol)
C                    -1.62211300          -0.62997600           0.09749800         
C                     1.01956500           1.97293600          -0.16696000         
C                    -2.74099900           0.37257600          -0.19315700         
C                     0.92923800          -0.48797600           0.10791200         
C                    -0.32118500           0.06096500           0.40269800         
O                     1.96913400           0.22689700           0.06916700         
O                     1.05114400          -1.78758300          -0.18031400         
H                     1.94680900          -1.92465100          -0.51432000         
H                    -0.29819000           0.68820800           1.29489000         
H                    -1.48515300          -1.29303600          -0.76684700         
H                    -1.93255500          -1.27474500           0.93763000         
H                     0.13656900           2.45875300           0.24056300         
H                     1.00751700           1.85245400          -1.24638100         
H                     1.95089300           2.34684100           0.25168200         
H                    -2.89377100           1.04519000           0.66217600         
H                    -2.48892900           0.99140800          -1.06427400         
H                    -3.69245800          -0.13608300          -0.39388600         
