18

C                    -1.52054000          -0.19011000           0.05850000         
C                     2.07891000          -0.57604000          -0.74999000         
C                     2.97510000          -1.37118000           0.16520000         
C                    -0.12513000           0.24945000          -0.41955000         
O                     0.71188000          -0.75143000          -0.28926000         
F                    -2.41319000           0.75391000          -0.19270000         
F                    -1.50968000          -0.42849000           1.36947000         
F                    -1.89050000          -1.30563000          -0.56708000         
O                     0.09409000           1.34827000          -0.83996000         
H                     2.10975000          -0.93707000          -1.78420000         
H                     2.31752000           0.48719000          -0.70810000         
H                     4.01150000          -1.31114000          -0.19349000         
H                     2.92926000          -0.94717000           1.17852000         
H                     2.66722000          -2.42746000           0.19244000         
N                     2.50977000           2.10086000           1.11408000         
H                     2.21614000           2.29736000           2.06957000         
H                     3.31944000           2.68184000           0.94889000         
H                     1.77095000           2.45069000           0.50700000         
18

C                    -1.77859000          -0.15279000           0.06160000         
C                     3.05999000           0.07793000          -0.74388000         
C                     3.82313000          -1.01182000          -0.00789000         
C                    -0.27336000           0.15463000           0.09308000         
O                     0.45859000          -0.65323000           0.61168000         
F                    -2.50414000           0.83780000          -0.43946000         
F                    -2.19269000          -0.39473000           1.30436000         
F                    -1.99209000          -1.24606000          -0.66978000         
O                     0.06299000           1.28411000          -0.45081000         
H                     2.19324000          -0.36768000          -1.24518000         
H                     3.67769000           0.54635000          -1.51675000         
H                     4.16220000          -1.78489000          -0.70887000         
H                     4.70788000          -0.60671000           0.50611000         
H                     3.16504000          -1.48757000           0.73086000         
N                     2.56804000           1.14580000           0.14729000         
H                     2.33367000           0.73357000           1.04912000         
H                     3.27538000           1.85715000           0.30585000         
H                     1.09419000           1.41193000          -0.28953000         
18
DE: 55.27919438347365  DG: 64.82549640698433 DH: 3.3910133843212478 (kcal/mol)
C                    -1.77948200          -0.16920400           0.06113600         
C                     2.39890400          -0.32903700          -0.75012800         
C                     3.12209800          -1.29206900           0.11370700         
C                    -0.35419800           0.36589500          -0.19982300         
O                     0.53939100          -0.43269000           0.21155600         
F                    -2.71436500           0.70227000          -0.29695100         
F                    -1.94779600          -0.44826000           1.35755400         
F                    -1.97787100          -1.29830600          -0.62857600         
O                    -0.21830800           1.44725800          -0.75320200         
H                     1.68080200          -0.76661800          -1.43629600         
H                     2.98490900           0.45496300          -1.21709400         
H                     3.65595500          -1.98095200          -0.56192000         
H                     3.85014300          -0.80366000           0.76701200         
H                     2.41159300          -1.87904100           0.70258000         
N                     2.26516400           1.40967300           0.62705700         
H                     1.92388100           1.00784000           1.49385600         
H                     3.02329000           2.06323200           0.80381000         
H                     1.48097800           1.86512600           0.15422600         
