18

C                    -0.97056000          -0.45273000           0.15260000         
C                     2.23085000          -0.15987000           0.40475000         
C                     2.96002000          -1.17223000          -0.44709000         
C                     0.06928000           0.69724000           0.30072000         
O                     1.20172000           0.44658000          -0.40061000         
F                    -0.38625000          -1.53640000          -0.37002000         
F                    -2.03976000          -0.17714000          -0.58317000         
F                    -1.39520000          -0.77393000           1.37415000         
O                    -0.01865000           1.47057000           1.20500000         
H                     2.90052000           0.62736000           0.77481000         
H                     1.77139000          -0.64536000           1.27840000         
H                     2.26036000          -1.93597000          -0.79745000         
H                     3.41005000          -0.68556000          -1.31715000         
H                     3.75345000          -1.65389000           0.13275000         
N                    -0.69518000           1.94863000          -1.47890000         
H                    -1.39337000           1.67196000          -2.16336000         
H                    -1.02632000           2.77556000          -0.99150000         
H                     0.16463000           2.18508000          -1.96306000         
18

C                    -1.47038000          -0.81198000          -0.11779000         
C                     2.06424000          -0.12021000           0.45675000         
C                     2.81399000          -1.17257000          -0.32484000         
C                     0.60413000           1.67453000           0.03060000         
O                     1.36971000           0.70341000          -0.49297000         
F                    -0.54950000          -1.70266000          -0.49784000         
F                    -2.66516000          -1.25884000          -0.49805000         
F                    -1.44879000          -0.74016000           1.20816000         
O                     0.46797000           1.87442000           1.20908000         
H                     2.73363000           0.51588000           1.04873000         
H                     1.32984000          -0.56095000           1.14095000         
H                     2.11086000          -1.78264000          -0.90258000         
H                     3.52843000          -0.70653000          -1.01339000         
H                     3.36385000          -1.82554000           0.36289000         
N                    -0.04501000           2.35349000          -0.96219000         
H                    -1.27242000           0.16470000          -0.57131000         
H                    -0.49880000           3.21246000          -0.69059000         
H                     0.30507000           2.27259000          -1.90464000         
18
DE: 57.49242039009296  DG: 67.63485643852533 DH: -12.428537284894832 (kcal/mol)
C                    -1.24717300          -0.53170800          -0.00275500         
C                     2.00863600          -0.22153000           0.46232500         
C                     2.75871600          -1.23425400          -0.36542600         
C                     0.23667500           1.24892700           0.11561100         
O                     1.23902600           0.59877300          -0.44959800         
F                    -0.50161200          -1.61129100          -0.40288600         
F                    -2.47742200          -0.73655600          -0.60087300         
F                    -1.47043700          -0.73810800           1.31752500         
O                     0.12846800           1.68316800           1.21904700         
H                     2.67163500           0.44056600           1.03220900         
H                     1.30459400          -0.69882700           1.15276700         
H                     2.04202700          -1.86080600          -0.90672700         
H                     3.42294700          -0.73758100          -1.08279300         
H                     3.36474300          -1.87048900           0.29023300         
N                    -0.56824800           1.85960200          -1.02089200         
H                    -1.20352900           0.97610800          -0.97517600         
H                    -1.02644800           2.71938600          -0.71737600         
H                    -0.03406600           1.96389100          -1.88491200         
