18

C                    -1.19234000          -0.32515000          -0.05645000         
C                     2.31873000          -0.88125000           0.12792000         
C                     3.38621000           0.17871000          -0.02501000         
C                     0.24354000           0.11886000          -0.34394000         
O                     1.05423000          -0.37340000           0.59158000         
F                    -2.08719000           0.41372000          -0.69598000         
F                    -1.50656000          -0.36314000           1.23215000         
F                    -1.27447000          -1.58117000          -0.52969000         
O                     0.57001000           0.57015000          -1.40093000         
H                     2.60022000          -1.62360000           0.87938000         
H                     2.14430000          -1.39204000          -0.82676000         
H                     4.33054000          -0.30198000          -0.30835000         
H                     3.10490000           0.89174000          -0.80662000         
H                     3.54039000           0.71431000           0.91853000         
N                    -0.37080000           2.20680000           0.94294000         
H                     0.31506000           2.85896000           0.57602000         
H                    -0.23138000           2.13406000           1.94563000         
H                    -1.29001000           2.60832000           0.78533000         
18

C                    -1.11957000          -0.30645000          -0.01772000         
C                     1.93960000          -0.88280000           0.14565000         
C                     3.33804000          -0.32675000          -0.02857000         
C                     0.08085000           0.65769000          -0.00928000         
O                     1.10145000           0.10635000           0.75171000         
F                    -2.16231000           0.25228000          -0.64290000         
F                    -1.49652000          -0.57518000           1.23430000         
F                    -0.84680000          -1.46335000          -0.62136000         
O                     0.40687000           0.85419000          -1.34032000         
H                     1.94123000          -1.75027000           0.81664000         
H                     1.52287000          -1.19152000          -0.81767000         
H                     4.01438000          -1.10182000          -0.41099000         
H                     3.32710000           0.50824000          -0.73985000         
H                     3.72486000           0.03722000           0.93060000         
N                    -0.25132000           1.90100000           0.61000000         
H                     0.86393000           1.70424000          -1.37021000         
H                    -0.20214000           1.81436000           1.61890000         
H                    -1.17552000           2.21426000           0.33077000         
18
DE: 24.655475764530355  DG: 36.31460227448579 DH: -2.7148661567877443 (kcal/mol)
C                    -1.28823700          -0.36240400          -0.02236600         
C                     1.95718400          -0.91024200           0.09799200         
C                     3.21620600          -0.08454000          -0.06968700         
C                     0.00878400           0.45384500          -0.07745800         
O                     0.93439300          -0.15850000           0.76532400         
F                    -2.27159400           0.28291700          -0.66369600         
F                    -1.69921200          -0.55016300           1.23804900         
F                    -1.11569900          -1.54989900          -0.58886800         
O                     0.38782900           0.82344400          -1.27585500         
H                     2.13551000          -1.78688200           0.73116800         
H                     1.58232300          -1.24403500          -0.87569600         
H                     4.01951700          -0.69602300          -0.50071100         
H                     3.01361600           0.75602900          -0.74249300         
H                     3.55390200           0.29892000           0.90156900         
N                    -0.24814400           1.85205900           0.52782700         
H                     0.24974600           2.01690200          -0.54506900         
H                     0.24802300           2.01835100           1.40239300         
H                    -1.22848400           2.12711500           0.57804400         
