18

C                     0.99335000          -0.50610000          -0.07095000         
C                    -2.48980000           0.42057000          -0.13677000         
C                    -2.96068000          -0.98394000           0.18766000         
C                    -0.20601000           0.31686000           0.40022000         
O                    -1.12083000           0.35483000          -0.56693000         
F                     2.06607000          -0.28495000           0.67156000         
F                     1.30571000          -0.33242000          -1.34873000         
F                     0.63364000          -1.79302000           0.08413000         
O                    -0.36019000           0.63392000           1.54120000         
H                    -2.56163000           1.08698000           0.72839000         
H                    -3.03968000           0.85116000          -0.97696000         
H                    -4.02158000          -0.97644000           0.46947000         
H                    -2.82807000          -1.63774000          -0.68229000         
H                    -2.38376000          -1.39084000           1.02807000         
N                     1.06754000           2.35514000          -0.53349000         
H                     0.53877000           2.62758000          -1.35328000         
H                     2.05231000           2.35460000          -0.78592000         
H                     0.93320000           3.06850000           0.17544000         
18

C                     1.10474000          -0.42039000          -0.01603000         
C                    -2.65639000           0.32924000          -0.35269000         
C                    -2.85157000          -1.04791000           0.24133000         
C                     0.48045000           0.84790000           0.59017000         
O                    -1.47165000           0.31412000          -1.13901000         
F                     2.28809000          -0.63014000           0.57905000         
F                     1.34538000          -0.27659000          -1.32609000         
F                     0.35394000          -1.48482000           0.17536000         
O                    -0.20254000           0.78819000           1.58157000         
H                    -2.57004000           1.07357000           0.45551000         
H                    -3.52230000           0.59685000          -0.98144000         
H                    -3.79613000          -1.08994000           0.79662000         
H                    -2.87109000          -1.80174000          -0.55589000         
H                    -2.02918000          -1.27883000           0.92416000         
N                     0.87397000           1.98202000          -0.03173000         
H                    -1.33765000           1.19380000          -1.50105000         
H                     1.46947000           1.95788000          -0.84411000         
H                     0.62574000           2.86447000           0.38989000         
18
DE: 26.882506980043466  DG: 38.19022817003004 DH: 0.9091778202677072 (kcal/mol)
C                     1.11582600          -0.52926100          -0.04139100         
C                    -2.30958400           0.37760900          -0.14514300         
C                    -2.64179500          -1.08741200           0.05426800         
C                     0.23685500           0.64228700           0.41361800         
O                    -1.02198200           0.52179000          -0.72869800         
F                     2.25468300          -0.52084300           0.65630000         
F                     1.44616900          -0.42859800          -1.33832000         
F                     0.51116800          -1.68957300           0.15173000         
O                    -0.11280400           0.75677400           1.56942600         
H                    -2.32528200           0.90765400           0.81880900         
H                    -3.02554400           0.85882800          -0.82431300         
H                    -3.66440200          -1.19681100           0.43702200         
H                    -2.55652300          -1.62940500          -0.89538500         
H                    -1.94857700          -1.53284600           0.77611200         
N                     0.64672200           1.92725100          -0.35015700         
H                    -0.40777800           1.63053500          -0.90699400         
H                     1.49599800           1.87604100          -0.90839600         
H                     0.66734600           2.69852200           0.31292700         
