18

C                    -1.45182000          -0.00346000           0.20293000         
C                     2.01608000          -1.02875000          -0.62159000         
C                     3.00974000          -1.25121000           0.49134000         
C                    -0.11571000           0.01352000          -0.56055000         
O                     0.70353000          -0.86243000          -0.03017000         
F                    -2.32960000           0.79240000          -0.38628000         
F                    -1.27222000           0.41658000           1.45631000         
F                    -1.95114000          -1.23636000           0.24113000         
O                     0.07787000           0.74199000          -1.48978000         
H                     1.94278000          -1.88856000          -1.29911000         
H                     2.25050000          -0.12690000          -1.19167000         
H                     3.05667000          -0.34478000           1.10413000         
H                     4.00084000          -1.44085000           0.06082000         
H                     2.72279000          -2.10946000           1.10889000         
N                     2.21944000           2.02920000           0.32676000         
H                     2.97703000           2.70019000           0.39597000         
H                     1.75151000           2.20284000          -0.55850000         
H                     1.55978000           2.26813000           1.05436000         
18

C                    -1.49043000           0.00239000           0.18905000         
C                     1.94931000          -1.01378000          -0.65777000         
C                     2.84836000          -0.23108000           0.29317000         
C                    -0.19544000          -0.03460000          -0.63639000         
O                     0.59832000          -0.97416000          -0.15847000         
F                    -2.37209000           0.81452000          -0.36543000         
F                    -1.20267000           0.45356000           1.41451000         
F                    -2.02646000          -1.20734000           0.30279000         
O                     0.02031000           0.71862000          -1.53717000         
H                     2.22630000          -2.07215000          -0.69596000         
H                     1.95937000          -0.58894000          -1.66713000         
H                     5.33737000           1.57074000           2.08449000         
H                     3.86592000          -0.23910000          -0.12670000         
H                     2.90397000          -0.76399000           1.25313000         
N                     2.44111000           1.13439000           0.55012000         
H                     4.64231000           1.62488000           1.77914000         
H                     2.25510000           1.64624000          -0.30515000         
H                     1.61026000           1.17697000           1.12957000         
18
DE: 118.51646424597286  DG: 126.03340054647074 DH: 17.993785850860434 (kcal/mol)
C                    -1.67577600          -0.01005500           0.18151800         
C                     1.80813600          -1.01825600          -0.59586500         
C                     2.84298800          -0.51690500           0.40217000         
C                    -0.33417200           0.02383600          -0.56739100         
O                     0.46715100          -0.89398100          -0.07406200         
F                    -2.55088200           0.78804000          -0.40319500         
F                    -1.47794400           0.41136300           1.43291700         
F                    -2.17022300          -1.24119800           0.22380400         
O                    -0.09119500           0.82327900          -1.42507400         
H                     1.95741200          -2.09651100          -0.72818000         
H                     1.85888900          -0.51731300          -1.56810100         
H                     3.99294900           0.57980800           1.50498800         
H                     3.83967800          -0.70996600           0.01049900         
H                     2.70704700          -1.00160100           1.36648500         
N                     2.26577800           1.29144300           0.32847800         
H                     3.21167500           1.65776900           0.49291900         
H                     1.70602400           1.72547400          -0.42042800         
H                     1.80262000           1.39230200           1.23123600         
