18

C                    -0.83836000          -0.85442000          -0.12990000         
C                     2.53252000           0.13254000           0.68228000         
C                     2.90366000           0.03550000          -0.78745000         
C                     0.21245000           0.24526000           0.08094000         
O                     1.14042000          -0.20500000           0.89937000         
F                    -0.42471000          -1.55390000          -1.19470000         
F                    -2.03717000          -0.35450000          -0.39287000         
F                    -0.92933000          -1.68137000           0.89967000         
O                     0.19718000           1.26189000          -0.54626000         
H                     2.73358000           1.13940000           1.09272000         
H                     3.07618000          -0.61065000           1.28365000         
H                     3.98392000           0.03572000          -0.88998000         
H                     2.52759000          -0.89452000          -1.21325000         
H                     2.49299000           0.87411000          -1.36168000         
N                    -1.72644000           3.30133000           0.67719000         
H                    -2.42602000           3.94185000           0.31664000         
H                    -0.90532000           3.41861000           0.10321000         
H                    -2.07144000           2.37467000           0.45839000         
18

C                    -0.82145000          -0.83801000          -0.03758000         
C                     2.03014000          -0.26920000           0.45365000         
C                     2.48670000           0.47137000          -0.79221000         
C                    -0.28697000           0.46684000           0.55403000         
O                     0.95174000           0.35754000           1.15007000         
F                    -0.21767000          -1.17359000          -1.18232000         
F                    -2.12510000          -0.72147000          -0.28505000         
F                    -0.64910000          -1.84173000           0.82490000         
O                    -0.33753000           1.38683000          -0.48799000         
H                     2.83788000          -0.29576000           1.19246000         
H                     1.76966000          -1.30917000           0.21510000         
H                     3.40524000           0.00511000          -1.17127000         
H                     1.72653000           0.44090000          -1.57866000         
H                     2.70784000           1.51977000          -0.55347000         
N                    -0.37449000           2.69198000           0.04568000         
H                    -0.97933000           0.77525000           1.34825000         
H                     0.60078000           2.99191000           0.09699000         
H                    -0.79736000           3.23832000          -0.69873000         
18
DE: 108.98459494099707  DG: 120.70396236301444 DH: 43.68905353728491 (kcal/mol)
C                    -0.83119500          -0.82357900          -0.02102600         
C                     2.08401000          -0.44721900           0.44125400         
C                     2.48241100           0.25909200          -0.84326100         
C                    -0.17789500           0.37082100           0.55208600         
O                     1.04626800           0.21738300           1.16349500         
F                    -0.25073400          -1.37126600          -1.13725600         
F                    -2.08961300          -0.52427300          -0.42154700         
F                    -0.89467300          -1.82335200           0.86402200         
O                    -0.20751500           1.38056900          -0.41029600         
H                     2.93180600          -0.47986400           1.13621000         
H                     1.78639100          -1.48432600           0.22890500         
H                     3.34659000          -0.24641600          -1.29391600         
H                     1.66069700           0.24241300          -1.56769300         
H                     2.75133100           1.30292200          -0.63767000         
N                    -1.08662700           2.46444800           0.12005700         
H                    -1.34939700           2.03620500           1.03681400         
H                    -0.56554300           3.34268600           0.21161200         
H                    -1.89431900           2.56694900          -0.50154600         
