13

C                     1.22276000          -0.03341000           0.39380000         
C                     0.77196000           1.21980000          -0.36443000         
C                     1.87911000          -1.07521000          -0.49104000         
C                    -1.03923000          -0.04894000           0.13027000         
O                    -0.02788000          -0.52594000           0.88591000         
O                    -0.57016000           0.90493000          -0.70517000         
O                    -2.16508000          -0.40821000           0.18723000         
H                     1.84778000           0.20797000           1.26067000         
H                     1.34537000           1.39991000          -1.27842000         
H                     0.78700000           2.11874000           0.26474000         
H                     1.26189000          -1.25542000          -1.38199000         
H                     2.86814000          -0.73258000          -0.81378000         
H                     1.99161000          -2.01599000           0.05483000         
13

C                     1.68011000          -0.25473000           0.60538000         
C                     1.44497000           1.19344000           0.54266000         
C                     1.63896000          -1.11603000          -0.62631000         
C                    -1.68289000          -0.03643000          -0.48913000         
O                     0.44738000           0.31476000           1.03327000         
O                    -1.26288000           0.73542000          -1.24832000         
O                    -2.14479000          -0.81969000           0.22358000         
H                     2.28658000          -0.62745000           1.43085000         
H                     1.22670000           1.65136000          -0.42759000         
H                     1.89952000           1.84802000           1.28925000         
H                     1.01650000          -0.62788000          -1.39559000         
H                     2.64926000          -1.25132000          -1.02915000         
H                     1.21666000          -2.10569000          -0.39159000         
13
DE: 85.86651745150884  DG: 81.95964330449222 DH: 14.257170172084113 (kcal/mol)
C                     1.27983100          -0.10950300           0.46227200         
C                     1.04396200           1.28152800           0.10719500         
C                     1.52739000          -1.12413300          -0.62788200         
C                    -1.22610900          -0.00044700          -0.07638100         
O                    -0.04492900          -0.04775700           0.99010800         
O                    -0.88094500           0.79840700          -0.94839000         
O                    -2.13659800          -0.69697900           0.22577700         
H                     1.95981100          -0.23842600           1.31291600         
H                     1.03019500           1.67045100          -0.90426200         
H                     0.98465700           1.98939300           0.93152200         
H                     0.87313500          -0.93381700          -1.48506800         
H                     2.57463000          -1.07412100          -0.95036200         
H                     1.32690300          -2.12751400          -0.23592300         
