12

C                     0.30512000           1.14659000          -0.32411000         
C                     1.37278000           0.42097000           0.49053000         
C                    -1.55142000          -0.28299000           0.05548000         
O                    -1.04712000           0.93398000           0.13507000         
O                     1.75721000          -0.81163000          -0.04157000         
O                    -0.95834000          -1.26698000          -0.29699000         
H                     0.94836000          -1.32205000          -0.18340000         
H                    -2.61052000          -0.27967000           0.36132000         
H                     0.42730000           2.23027000          -0.25125000         
H                     0.38324000           0.83562000          -1.37502000         
H                     2.26944000           1.05541000           0.50019000         
H                     1.01625000           0.35128000           1.53570000         
12

C                     0.29283000           0.90388000          -0.17987000         
C                     1.01262000          -0.05366000           0.40045000         
C                    -1.74462000          -0.16343000           0.04717000         
O                    -1.05462000           0.99184000           0.18152000         
O                     2.21336000          -0.47669000          -0.03761000         
O                    -1.27658000          -1.23246000          -0.20140000         
H                     2.45413000          -1.27939000           0.42335000         
H                    -2.81663000           0.03743000           0.21599000         
H                     0.58550000           1.50215000          -1.03773000         
H                     3.06167000           1.40293000          -1.62287000         
H                     3.22645000           2.13683000          -1.49806000         
H                     0.58826000          -0.59331000           1.24364000         
12
DE: 126.12376191449229  DG: 118.83461156249001 DH: 32.423757170172095 (kcal/mol)
C                     0.26014200           1.13474000          -0.20446500         
C                     1.16598500           0.24685700           0.46709700         
C                    -1.61952900          -0.28654600           0.02346200         
O                    -1.10879900           0.95294000           0.09188600         
O                     1.84265700          -0.81343200          -0.08846000         
O                    -1.00692900          -1.29344400          -0.18505900         
H                     1.21474200          -1.55118800          -0.04049100         
H                    -2.71044700          -0.24400800           0.18458500         
H                     0.40959600           2.20350900          -0.29108600         
H                     1.50763400           1.11812200          -1.17726100         
H                     2.08389300           1.14446600          -0.43338100         
H                     0.83955900          -0.00971700           1.49414500         
