12

C                     1.31500000          -0.57162000           0.03861000         
C                     1.51164000           0.96598000          -0.07526000         
C                    -0.97517000          -0.60964000           0.49323000         
O                     0.01001000          -0.92143000          -0.38618000         
O                     0.28952000           1.63884000          -0.21635000         
O                    -2.12597000          -0.65189000           0.20642000         
H                    -0.12325000           1.35537000          -1.04054000         
H                    -0.58763000          -0.34605000           1.49701000         
H                     2.00673000          -1.11031000          -0.61095000         
H                     1.47477000          -0.91785000           1.07274000         
H                     2.18987000           1.19723000          -0.90831000         
H                     1.98137000           1.34502000           0.84021000         
12

C                     1.48168000          -0.50148000          -0.23608000         
C                     1.88512000           0.55030000           0.78313000         
C                    -0.88142000          -0.07142000          -0.09935000         
O                     0.12448000          -0.93737000          -0.07214000         
O                    -0.53838000           1.10993000          -0.64943000         
O                    -1.97528000          -0.31500000           0.31319000         
H                    -1.32772000           1.66748000          -0.62242000         
H                     1.44542000           0.30469000           1.75651000         
H                     1.62316000          -0.13756000          -1.26450000         
H                     2.06233000          -1.42217000          -0.10541000         
H                     1.54849000           1.55748000           0.49029000         
H                     2.97334000           0.55974000           0.89603000         
12
DE: 112.81554043849138  DG: 109.29897720052374 DH: -20.738049713193096 (kcal/mol)
C                     1.39166300          -0.73169500          -0.05995100         
C                     1.46309800           0.70516900           0.38557900         
C                    -0.79177600          -0.07241600           0.22641800         
O                     0.07780900          -1.00263400          -0.46036900         
O                    -0.44745000           1.24172100          -0.38131700         
O                    -1.96513700          -0.35866100           0.31961200         
H                    -0.78728500           1.23222600          -1.29448700         
H                    -0.12775900           0.17579600           1.21349000         
H                     2.06598300          -0.88878800          -0.91379600         
H                     1.69436100          -1.38744600           0.77136800         
H                     1.74157700           1.47154900          -0.33173800         
H                     1.71343600           0.94691000           1.41948600         
