12

C                     0.47737000          -1.22205000          -0.29256000         
C                     1.66186000          -0.55021000           0.36614000         
C                    -1.18085000           0.46530000          -0.33396000         
O                    -0.73342000          -0.67926000           0.20462000         
O                     1.69278000           0.78222000          -0.09325000         
O                    -2.10003000           1.06663000           0.12279000         
H                     2.20975000           1.32245000           0.50910000         
H                    -0.62184000           0.75931000          -1.24233000         
H                     0.53740000          -1.09570000          -1.38515000         
H                     0.46023000          -2.28943000          -0.05937000         
H                     2.58439000          -1.09522000           0.10485000         
H                     1.52222000          -0.60178000           1.45694000         
12

C                    -0.03194000          -1.93603000           0.02117000         
C                     0.69356000          -0.71226000           0.60229000         
C                    -0.56043000           0.01247000           0.13520000         
O                    -1.16508000          -1.09783000          -0.34028000         
O                     1.72320000           2.03710000          -0.44065000         
O                    -0.96998000           1.12888000           0.11303000         
H                     2.06588000           2.60826000           0.25344000         
H                     0.76355000           2.09949000          -0.33796000         
H                     0.41686000          -2.37731000          -0.87358000         
H                    -0.33315000          -2.71244000           0.72990000         
H                     1.60153000          -0.35758000           0.10474000         
H                     0.81686000          -0.69919000           1.69037000         
12
DE: 101.5078192485048  DG: 96.51660868551497 DH: 5.103489483747626 (kcal/mol)
C                     0.25010400          -1.45584200          -0.21302100         
C                     1.22517800          -0.55224400           0.46248700         
C                    -0.92041600           0.45307900          -0.02000200         
O                    -1.03389000          -0.94972400          -0.10386900         
O                     1.68121300           1.26603100          -0.31057900         
O                    -1.89661600           1.10560900           0.12848000         
H                     1.87603800           1.86848000           0.42259300         
H                     0.66924500           1.22551900          -0.35782900         
H                     0.54315900          -1.64787400          -1.25553200         
H                     0.30482400          -2.41535400           0.33464400         
H                     2.27430100          -0.76920600           0.26688200         
H                     0.99758300          -0.30685500           1.50020700         
