17

C                    -0.03170000           0.33939000           0.04952000         
C                     1.17946000           0.69954000          -0.82683000         
C                     0.89254000          -0.49346000           0.95752000         
C                     1.92347000          -0.50174000          -0.19644000         
C                    -1.93442000          -1.07201000          -0.00627000         
O                    -0.90722000          -0.42867000          -0.72940000         
O                    -0.70266000           1.36186000           0.71283000         
H                    -1.11764000           1.91448000           0.04038000         
H                     1.60587000           1.65640000          -0.50386000         
H                     1.00016000           0.69552000          -1.90693000         
H                     0.51344000          -1.45499000           1.32002000         
H                     1.22256000           0.11790000           1.80400000         
H                     2.97378000          -0.35284000           0.07522000         
H                     1.82890000          -1.40083000          -0.81505000         
H                    -2.46020000          -0.36329000           0.64663000         
H                    -1.54495000          -1.89656000           0.60959000         
H                    -2.63535000          -1.48258000          -0.73906000         
17

C                     0.42817000          -0.14008000          -0.13823000         
C                     0.46319000           1.36940000          -0.20725000         
C                     1.01989000          -0.86449000           1.03296000         
C                     1.70711000          -0.88720000          -0.30989000         
C                    -1.77515000          -1.00288000           0.09802000         
O                    -0.70863000          -0.66254000          -0.76446000         
O                    -0.70974000           1.95530000           0.30431000         
H                    -1.42274000           1.70560000          -0.28912000         
H                     1.31053000           1.74630000           0.38053000         
H                     0.62099000           1.66604000          -1.26006000         
H                     0.54053000          -1.78571000           1.36003000         
H                     1.45231000          -0.26474000           1.83316000         
H                     2.62901000          -0.32005000          -0.43867000         
H                     1.63917000          -1.81066000          -0.88445000         
H                    -1.92559000          -0.23517000           0.86787000         
H                    -1.60644000          -1.97171000           0.59071000         
H                    -2.67406000          -1.08623000          -0.51998000         
17
DE: 112.02048590196551  DG: 107.82997746098728 DH: 12.952915869980878 (kcal/mol)
C                     0.16140800           0.05667000          -0.01879700         
C                     0.84692800           1.12769500          -0.56989800         
C                     0.98184500          -0.70857700           0.95344600         
C                     1.87029100          -0.75373900          -0.26774700         
C                    -1.88385100          -1.03362000           0.04085200         
O                    -0.78746900          -0.55796900          -0.73165200         
O                    -0.78136000           1.79993200           0.51293700         
H                    -1.51372800           1.94151000          -0.10160800         
H                     1.58748500           1.64314000           0.02785100         
H                     0.60697900           1.47313700          -1.57265600         
H                     0.54248900          -1.64709100           1.29654100         
H                     1.36841000          -0.10743700           1.77844600         
H                     2.87814400          -0.35123100          -0.19706000         
H                     1.71052700          -1.56619200          -0.97323400         
H                    -2.25214800          -0.20827300           0.66213600         
H                    -1.59210500          -1.88270200           0.67350000         
H                    -2.64514800          -1.36114000          -0.67132500         
