17

C                    -0.00825000           0.03168000          -0.18512000         
C                    -0.65063000           0.13097000           1.20928000         
C                    -1.23952000          -0.72969000          -0.69538000         
C                    -2.00938000          -0.18687000           0.53386000         
C                     2.27380000          -0.06632000           0.32918000         
O                     1.18213000          -0.66993000          -0.32926000         
O                     0.08683000           1.32309000          -0.71989000         
H                     0.34031000           1.20480000          -1.64200000         
H                    -0.31188000          -0.69268000           1.84228000         
H                    -0.52971000           1.08910000           1.72160000         
H                    -1.06356000          -1.81257000          -0.64173000         
H                    -1.59901000          -0.45043000          -1.69284000         
H                    -2.56943000           0.72597000           0.29370000         
H                    -2.66493000          -0.89462000           1.05816000         
H                     2.04116000           0.12835000           1.37915000         
H                     2.55886000           0.88001000          -0.14586000         
H                     3.11441000          -0.77761000           0.28756000         
17

C                     0.05107000          -0.68127000           0.27576000         
C                    -0.58515000           0.69916000           0.58400000         
C                    -1.20121000          -1.04576000          -0.52669000         
C                    -1.95329000           0.05402000           0.26003000         
C                     2.32269000          -0.17469000           0.28511000         
O                     1.24486000          -0.72733000          -0.42588000         
O                    -0.16323000           1.60980000          -0.40170000         
H                    -0.71982000           2.39087000          -0.34142000         
H                     0.11481000          -1.26631000           1.21185000         
H                    -0.44552000           1.10541000           1.59782000         
H                    -1.56766000          -2.07694000          -0.47769000         
H                    -1.04208000          -0.74558000          -1.56838000         
H                    -2.65716000           0.68423000          -0.29773000         
H                    -2.44560000          -0.33406000           1.15966000         
H                     2.47275000          -0.68439000           1.25330000         
H                     2.16393000           0.89999000           0.46510000         
H                     3.22349000          -0.30312000          -0.32467000         
17
DE: 110.72405127499275  DG: 105.91607348600401 DH: 10.360181644359473 (kcal/mol)
C                     0.04662000          -0.62320500           0.04456900         
C                    -0.55678000           0.32323600           0.90170400         
C                    -1.23736200          -0.99402300          -0.64755700         
C                    -1.93817800           0.01965500           0.30777300         
C                     2.25290500           0.05078700           0.16039400         
O                     1.26465800          -0.93608600          -0.22970700         
O                    -0.01448100           1.69855600          -0.52178200         
H                    -0.48648900           2.45350700          -0.88978900         
H                    -0.45436300          -0.86514200           1.46650800         
H                    -0.15674100           1.01800300           1.63175300         
H                    -1.55186700          -2.04223300          -0.63350600         
H                    -1.17819600          -0.60736000          -1.66960600         
H                    -2.32060100           0.89383700          -0.21636300         
H                    -2.68218700          -0.40092800           0.99215400         
H                     2.43327400          -0.03267800           1.23948300         
H                     1.83169800           1.02982100          -0.12107100         
H                     3.16083100          -0.20529600          -0.38894300         
