17

C                    -0.12024000           0.36299000          -0.06804000         
C                    -0.72686000          -0.53753000           1.02273000         
C                    -1.16693000          -0.16697000          -1.06830000         
C                    -1.42902000          -1.34274000          -0.09434000         
C                     2.12813000          -0.27662000           0.44139000         
O                     1.14490000          -0.01598000          -0.53507000         
O                    -0.14781000           1.71282000           0.27190000         
H                     0.22323000           2.19644000          -0.47488000         
H                    -1.43478000           0.05696000           1.61088000         
H                    -0.04346000          -1.06297000           1.69645000         
H                    -0.78050000          -0.40224000          -2.06605000         
H                    -2.02072000           0.51852000          -1.13014000         
H                    -2.47426000          -1.61963000           0.07906000         
H                    -0.85941000          -2.23623000          -0.37489000         
H                     2.01973000          -1.28503000           0.86553000         
H                     2.09858000           0.46303000           1.24655000         
H                     3.10358000          -0.21133000          -0.05535000         
17

C                    -0.91043000           0.58700000           0.08799000         
C                    -1.16644000          -0.45725000           1.13640000         
C                    -1.24477000          -0.18586000          -0.96274000         
C                    -1.56104000          -1.37575000          -0.06802000         
C                     2.69640000          -0.70602000           0.18252000         
O                     1.94059000           0.14536000          -0.64428000         
O                    -0.46870000           1.82781000           0.29206000         
H                    -0.14037000           2.19599000          -0.53566000         
H                    -1.97947000          -0.23055000           1.83731000         
H                    -0.27700000          -0.77041000           1.69713000         
H                     1.10164000          -0.28087000          -0.84384000         
H                    -1.28806000          -0.02671000          -2.03968000         
H                    -2.60845000          -1.70450000          -0.06133000         
H                    -0.91292000          -2.25503000          -0.18794000         
H                     2.16944000          -0.97672000           1.11002000         
H                     3.61206000          -0.17336000           0.46158000         
H                     2.99471000          -1.63799000          -0.32634000         
17
DE: 75.49504043547701  DG: 68.54349019451412 DH: 25.94455066921606 (kcal/mol)
C                    -0.53410800           0.58888600           0.05413300         
C                    -0.89344500          -0.43865700           1.08492300         
C                    -0.97424600          -0.19356700          -1.06428000         
C                    -1.48707000          -1.27768400          -0.09111100         
C                     2.40614800          -0.51586700           0.18746700         
O                     1.33979700           0.06233400          -0.49102300         
O                    -0.40963500           1.87657900           0.28122100         
H                    -0.27882000           2.33527400          -0.55832400         
H                    -1.64155900          -0.05582000           1.79019000         
H                    -0.05110500          -0.87008200           1.63489600         
H                     0.35393600          -0.40649600          -1.15886500         
H                    -1.47300600           0.18456300          -1.95800900         
H                    -2.57796100          -1.36553600          -0.02606400         
H                    -1.05281400          -2.27631900          -0.21753500         
H                     2.11074800          -1.39250500           0.79658100         
H                     2.88080400           0.21575600           0.86308000         
H                     3.18480800          -0.85881100          -0.51433100         
