17

C                    -0.01599000           0.31933000          -0.12322000         
C                    -0.58723000          -0.01302000           1.26825000         
C                    -1.41853000           0.13833000          -0.72497000         
C                    -1.82019000          -0.62287000           0.55854000         
C                     2.04956000          -0.83789000          -0.00502000         
O                     0.80826000          -0.67920000          -0.65674000         
O                     0.58644000           1.57217000          -0.19954000         
H                     0.78631000           1.73378000          -1.12818000         
H                    -0.82925000           0.91458000           1.79667000         
H                     0.01051000          -0.66323000           1.91682000         
H                    -1.46006000          -0.39619000          -1.67883000         
H                    -1.92474000           1.10735000          -0.80429000         
H                    -2.80350000          -0.38718000           0.99010000         
H                    -1.72475000          -1.71144000           0.43614000         
H                     2.65369000          -1.51255000          -0.61959000         
H                     1.93215000          -1.28123000           0.99227000         
H                     2.56628000           0.12276000           0.09629000         
17

C                     0.10667000           0.38961000          -0.03992000         
C                    -0.47965000           0.34582000           1.32856000         
C                    -1.37294000           0.27020000           0.09510000         
C                    -2.07334000          -1.01967000          -0.25744000         
C                     2.06194000          -0.88163000           0.00430000         
O                     0.76457000          -0.71911000          -0.53246000         
O                     0.66398000           1.59867000          -0.42069000         
H                     0.54739000           1.67716000          -1.37392000         
H                    -0.47909000           1.26748000           1.90745000         
H                    -0.35274000          -0.57834000           1.89271000         
H                    -2.26490000          -1.08205000          -1.33663000         
H                    -1.91166000           1.19263000          -0.12780000         
H                    -3.03920000          -1.09477000           0.26207000         
H                    -1.45256000          -1.87675000           0.02159000         
H                     2.50384000          -1.76131000          -0.47420000         
H                     2.01876000          -1.04080000           1.09309000         
H                     2.68228000           0.00203000          -0.19908000         
17
DE: 140.04757020997278  DG: 131.44943504099376 DH: -3.346797323135752 (kcal/mol)
C                     0.02358700           0.39289800           0.03601100         
C                    -0.26788000           0.31588200           1.49162700         
C                    -1.42113700           0.26458800          -0.39024300         
C                    -2.00403900          -0.93205000          -0.08186500         
C                     2.04229300          -0.84019900          -0.02829500         
O                     0.71192900          -0.71319000          -0.49210300         
O                     0.59039500           1.60261000          -0.38282400         
H                     0.65361700           1.57317400          -1.34497600         
H                    -0.37527300           1.26156400           2.01819300         
H                     0.19159800          -0.51145400           2.02973000         
H                    -1.88071200          -0.34776400          -1.69206400         
H                    -1.98901400           1.19258400          -0.45216400         
H                    -3.08497400          -1.06439000          -0.04886300         
H                    -1.34483500          -1.78396200           0.07694600         
H                     2.48306600          -1.68803800          -0.56154000         
H                     2.07504800          -1.02452900           1.05337400         
H                     2.61595000           0.07074100          -0.24263400         
