17

C                    -0.02729000           0.11030000           0.15496000         
C                     1.08948000           1.16209000           0.13611000         
C                     0.84832000          -0.82871000          -0.69165000         
C                     2.06626000           0.01750000          -0.24236000         
C                    -2.17250000          -0.46942000          -0.59044000         
O                    -1.23575000           0.55845000          -0.35962000         
O                    -0.19272000          -0.47714000           1.41826000         
H                    -0.56457000           0.20236000           1.99413000         
H                     0.93240000           1.86643000          -0.68733000         
H                     1.26993000           1.70819000           1.07479000         
H                     0.63634000          -0.69067000          -1.75532000         
H                     0.82028000          -1.89037000          -0.42371000         
H                     2.82171000           0.23962000          -1.01056000         
H                     2.54436000          -0.40705000           0.64735000         
H                    -2.32828000          -1.07970000           0.32767000         
H                    -1.83585000          -1.14410000          -1.38376000         
H                    -3.10876000           0.00293000          -0.89904000         
17

C                    -0.42296000           0.72772000           0.39347000         
C                     0.28117000           1.86523000           0.39486000         
C                     1.72636000          -1.25379000          -1.13015000         
C                     2.75343000          -0.98534000          -0.33127000         
C                    -2.40167000          -0.42844000          -0.21772000         
O                    -1.34925000           0.46712000          -0.54171000         
O                    -0.26471000          -0.29255000           1.26196000         
H                     0.52963000          -0.14053000           1.78281000         
H                     1.06578000           2.03643000           1.12883000         
H                     0.05467000           2.62476000          -0.34564000         
H                     1.02778000          -0.46770000          -1.44746000         
H                     1.53467000          -2.26907000          -1.48447000         
H                     2.93963000           0.04678000           0.01811000         
H                     3.45209000          -1.76785000          -0.01420000         
H                    -3.07789000           0.02484000           0.52270000         
H                    -2.02196000          -1.37478000           0.16129000         
H                    -2.94502000          -0.59483000          -1.14611000         
17
DE: 92.29221473151527  DG: 88.08539104350687 DH: 21.195267686424476 (kcal/mol)
C                    -0.05761400           0.31057500           0.09020000         
C                     0.68560800           1.54542400           0.17409500         
C                     1.17514500          -0.69443100          -0.87696600         
C                     2.24871600          -0.51914400          -0.00067000         
C                    -2.34184200          -0.40721400          -0.16977100         
O                    -1.25458900           0.42492700          -0.54395600         
O                    -0.20975200          -0.50438000           1.20199900         
H                     0.42847200          -0.16730100           1.83819800         
H                     1.57620200           1.69412000          -0.41750700         
H                     0.06919900           2.44157800           0.30465200         
H                     1.23090200          -0.25815000          -1.87380300         
H                     0.60824300          -1.62572200          -0.81321200         
H                     3.10159000           0.11049700          -0.24362600         
H                     2.32571100          -1.12019800           0.90426900         
H                    -2.62225500          -0.24982600           0.87719800         
H                    -2.09288300          -1.46692500          -0.31322700         
H                    -3.17053200          -0.13370700          -0.82861300         
