17

C                     0.04417000           0.32973000           0.01523000         
C                     1.29383000           0.33206000          -0.88159000         
C                     0.76630000          -0.60976000           1.00131000         
C                     1.78716000          -0.92118000          -0.11883000         
C                    -2.14383000          -0.58058000           0.06870000         
O                    -0.99825000          -0.27518000          -0.69784000         
O                    -0.36128000           1.53293000           0.58603000         
H                    -0.65001000           2.10474000          -0.13418000         
H                     1.91016000           1.21230000          -0.67050000         
H                     1.09838000           0.23937000          -1.95539000         
H                     0.18890000          -1.44423000           1.41295000         
H                     1.20305000          -0.02289000           1.81718000         
H                     2.84331000          -0.94072000           0.16821000         
H                     1.53820000          -1.84387000          -0.65292000         
H                    -1.93276000          -1.34768000           0.82867000         
H                    -2.89722000          -0.96911000          -0.62258000         
H                    -2.53394000           0.31237000           0.57308000         
17

C                     0.58965000           0.78149000           0.38791000         
C                     1.49829000           0.43676000          -0.78826000         
C                     1.00271000          -0.47319000           1.15109000         
C                     1.60969000          -0.98823000          -0.18242000         
C                    -2.41508000          -0.85713000          -0.01604000         
O                    -1.46383000          -0.48433000          -0.99085000         
O                    -0.22300000           1.64073000           0.58147000         
H                    -1.44627000           0.47939000          -1.02351000         
H                     2.43590000           1.00453000          -0.72122000         
H                     1.06986000           0.55249000          -1.78904000         
H                     0.19429000          -1.04278000           1.62400000         
H                     1.76961000          -0.23383000           1.90292000         
H                     2.61486000          -1.41624000          -0.12652000         
H                     0.92784000          -1.67730000          -0.68798000         
H                    -2.32996000          -1.93526000           0.13491000         
H                    -3.44287000          -0.63491000          -0.33787000         
H                    -2.23225000          -0.34813000           0.94551000         
17
DE: 45.07965497047143  DG: 41.409979414498 DH: 11.507409177820264 (kcal/mol)
C                     0.23961000           0.60728400           0.15260500         
C                     1.36878100           0.34211300          -0.84351600         
C                     0.76963000          -0.50022700           1.06769000         
C                     1.57324800          -1.02647900          -0.14764100         
C                    -2.01520600          -0.87531900           0.00557100         
O                    -1.15839100           0.01817500          -0.67818100         
O                    -0.34843700           1.71513100           0.44383600         
H                    -1.23842900           1.12498600          -0.28001500         
H                     2.18820100           1.04259800          -0.63561900         
H                     1.10836700           0.37077400          -1.90615200         
H                     0.06353600          -1.15956000           1.58387900         
H                     1.41910000          -0.02201900           1.81281000         
H                     2.60344900          -1.34423400           0.03894200         
H                     1.03494600          -1.82439800          -0.67218200         
H                    -1.58475200          -1.88445800          -0.00438600         
H                    -2.97951700          -0.90156800          -0.51578600         
H                    -2.17665100          -0.55279400           1.04501300         
