17

C                    -0.02605000           0.16459000           0.05254000         
C                     0.88365000          -0.90503000          -0.61349000         
C                     1.12844000           0.53174000           0.99452000         
C                     2.09701000          -0.16862000           0.00993000         
C                    -2.21310000          -0.66048000          -0.14048000         
O                    -1.16280000          -0.25216000           0.70932000         
O                    -0.37015000           1.19865000          -0.83655000         
H                     0.27270000           1.22601000          -1.55635000         
H                     0.83014000          -1.00948000          -1.70501000         
H                     0.71539000          -1.87963000          -0.14054000         
H                     1.02978000          -0.01603000           1.93865000         
H                     1.25517000           1.60244000           1.18354000         
H                     2.55850000           0.53716000          -0.69176000         
H                     2.88397000          -0.79162000           0.44151000         
H                    -1.87312000          -1.43771000          -0.84485000         
H                    -2.61277000           0.18439000          -0.71260000         
H                    -2.99604000          -1.08010000           0.49872000         
17

C                    -0.25288000           0.46907000           0.28637000         
C                     1.73098000          -1.34456000          -0.64985000         
C                     0.95457000           0.39606000           0.87579000         
C                     2.10978000           0.01446000          -0.02589000         
C                    -2.42479000          -0.35815000          -0.05851000         
O                    -1.36356000          -0.04107000           0.82830000         
O                    -0.44012000           0.93077000          -0.97214000         
H                     0.34949000           1.41845000          -1.22740000         
H                     0.88934000          -1.21374000          -1.34164000         
H                     2.55785000          -1.81412000          -1.20066000         
H                     1.40683000          -2.02871000           0.14420000         
H                     0.95308000          -0.00439000           1.88801000         
H                     2.33579000           0.74984000          -0.81554000         
H                     3.03240000          -0.07417000           0.55973000         
H                    -2.07406000          -1.00152000          -0.87540000         
H                    -2.87643000           0.54513000          -0.48431000         
H                    -3.16326000          -0.89621000           0.54079000         
17
DE: 118.1387035269992  DG: 112.37063620300889 DH: 0.005258126195026616 (kcal/mol)
C                    -0.17837500           0.30884400           0.20029200         
C                     1.27280800          -1.17315100          -0.50479200         
C                     1.07881200           0.46934300           0.97590700         
C                     2.11805200           0.03727400          -0.04758300         
C                    -2.39047700          -0.43081100          -0.11251800         
O                    -1.25805400          -0.21407000           0.72761000         
O                    -0.46144600           1.09335700          -0.84535900         
H                     0.36946200           1.49428100          -1.13369700         
H                     0.88344900          -1.13075200          -1.53039100         
H                     1.72037300          -2.16173600          -0.33652400         
H                     0.81308400          -0.97787300           0.80150900         
H                     1.15698100           1.44842300           1.48891200         
H                     2.33652500           0.74479400          -0.87614200         
H                     3.08824700          -0.23069900           0.39077900         
H                    -2.09489800          -1.04852500          -0.97010900         
H                    -2.80248200           0.52054000          -0.46235700         
H                    -3.11965800          -0.96174300           0.50217700         
