17

C                    -0.00680000           0.33626000          -0.11169000         
C                    -0.64463000           0.05361000           1.26382000         
C                    -1.40298000           0.26066000          -0.73710000         
C                    -1.81754000          -0.59337000           0.48223000         
C                     2.01100000          -0.87988000           0.02473000         
O                     0.72500000          -0.78061000          -0.54811000         
O                     0.72502000           1.50772000          -0.25562000         
H                     0.88206000           1.62573000          -1.19918000         
H                    -0.95211000           0.98831000           1.74862000         
H                    -0.07465000          -0.56626000           1.96356000         
H                    -1.47068000          -0.16967000          -1.74314000         
H                    -1.86377000           1.25534000          -0.69979000         
H                    -2.82862000          -0.46693000           0.88617000         
H                    -1.61347000          -1.65395000           0.29816000         
H                     2.69920000          -0.13853000          -0.40204000         
H                     2.38352000          -1.88658000          -0.18914000         
H                     1.98367000          -0.73122000           1.11461000         
17

C                    -0.03086000           0.30416000           0.01636000         
C                    -0.12279000           0.47107000           1.52655000         
C                    -1.38810000           0.08755000          -0.62934000         
C                    -2.28759000          -0.80644000          -0.22481000         
C                     2.06216000          -0.84884000           0.13814000         
O                     0.74422000          -0.81178000          -0.36563000         
O                     0.54884000           1.49046000          -0.47005000         
H                     0.62476000           1.39402000          -1.42600000         
H                     0.87226000           0.69593000           1.93694000         
H                    -0.49615000          -0.44853000           1.98279000         
H                    -1.59760000           0.71378000          -1.49901000         
H                    -0.79514000           1.29815000           1.76294000         
H                    -2.10881000          -1.44941000           0.63876000         
H                    -3.23098000          -0.92857000          -0.75244000         
H                     2.55678000           0.13251000           0.03225000         
H                     2.60916000          -1.59578000          -0.45263000         
H                     2.08559000          -1.14709000           1.19358000         
17
DE: 124.53992793649607  DG: 118.20082696748503 DH: -1.293260038240918 (kcal/mol)
C                     0.01364200           0.32424200          -0.03463900         
C                    -0.26003100           0.40490400           1.46910200         
C                    -1.40064100           0.25930000          -0.54861500         
C                    -2.19792900          -0.84850600          -0.09629600         
C                     2.05681900          -0.85715600           0.03068700         
O                     0.72987800          -0.80140600          -0.45403000         
O                     0.67255600           1.49966900          -0.40858000         
H                     0.79655000           1.46544400          -1.36416700         
H                    -0.01300700           1.34685700           1.95772700         
H                    -0.17148000          -0.50744500           2.05660900         
H                    -1.52787500           0.53584900          -1.60821000         
H                    -1.72618100           1.03495300           0.30018200         
H                    -2.43425600          -0.94359500           0.95911000         
H                    -2.63571400          -1.56029400          -0.79664500         
H                     2.70810500          -0.14496100          -0.49370900         
H                     2.41930900          -1.87571200          -0.13838100         
H                     2.09391600          -0.63389800           1.10693200         
