12

C                    -0.24575000           0.35757000           0.29637000         
C                    -0.67522000           1.77699000          -0.04924000         
C                     1.09593000           0.04769000          -0.34579000         
O                    -1.23936000          -0.49892000          -0.20946000         
O                    -0.85954000          -1.79846000           0.23048000         
O                     2.13795000           0.42508000           0.10304000         
H                    -1.25815000          -2.34070000          -0.47286000         
H                    -0.14202000           0.23311000           1.38494000         
H                     1.03127000          -0.52132000          -1.30047000         
H                    -0.84531000           1.86470000          -1.13416000         
H                     0.11362000           2.47557000           0.24825000         
H                    -1.60241000           2.01979000           0.48024000         
12

C                    -0.05333000          -0.16575000           0.28473000         
C                    -1.89214000           1.29470000           0.02171000         
C                     1.29389000          -0.33994000          -0.39725000         
O                    -0.77224000           0.65269000          -0.56116000         
O                    -0.71920000          -1.38571000           0.43547000         
O                     2.32142000           0.01703000           0.10622000         
H                    -0.22187000          -1.96500000           1.03688000         
H                     0.12566000           0.32711000           1.25984000         
H                     1.23963000          -0.82114000          -1.39599000         
H                    -2.11596000           2.19393000          -0.58510000         
H                    -1.67657000           1.61272000           1.04302000         
H                    -2.76505000           0.62107000           0.03163000         
12
DE: 102.0060617914953  DG: 97.82747603102263 DH: -50.545889101338425 (kcal/mol)
C                     0.16819100           0.30315600           0.33255500         
C                    -1.45594900           1.55613900          -0.07295100         
C                     1.41995900          -0.12577700          -0.30113500         
O                    -0.95974500          -0.10211800          -0.20468700         
O                    -1.05221100          -1.79519800           0.21833600         
O                     2.50984400           0.20971500           0.09563300         
H                    -1.41023800          -2.18454500          -0.59196700         
H                     0.19575200           0.63776700           1.37456600         
H                     1.27039000          -0.76480900          -1.19839800         
H                    -2.29277100           1.40417600          -0.75476000         
H                    -0.77946500           2.33675200          -0.42129600         
H                    -1.75997200           1.67035900           0.96677800         
