12

C                     0.05733000           0.26827000           0.57674000         
C                    -0.00154000           1.64448000          -0.06274000         
C                     1.05603000          -0.65151000          -0.11080000         
O                    -1.19741000          -0.37130000           0.70368000         
O                    -1.71196000          -0.57551000          -0.59769000         
O                     2.16169000          -0.29218000          -0.41225000         
H                    -2.44552000           0.05091000          -0.62342000         
H                     0.39396000           0.35063000           1.62169000         
H                     0.69579000          -1.69247000          -0.27262000         
H                    -0.40260000           1.57194000          -1.07974000         
H                     1.01550000           2.04788000          -0.11999000         
H                    -0.62907000           2.31740000           0.53371000         
12

C                     0.02585000           0.13771000           0.17105000         
C                    -0.05461000           1.62149000          -0.00915000         
C                     1.10594000          -0.64585000           0.05989000         
O                    -1.13342000          -0.49216000           0.56238000         
O                    -2.06581000          -0.40253000          -0.52682000         
O                     2.37273000          -0.24702000          -0.18402000         
H                    -2.86463000          -0.14474000          -0.04801000         
H                     2.40594000           0.71051000          -0.26689000         
H                     1.01077000          -1.71881000           0.20737000         
H                    -0.85623000           1.85471000          -0.72082000         
H                     0.87819000           2.04626000          -0.40401000         
H                    -0.28262000           2.11540000           0.94768000         
12
DE: 72.51311529151499  DG: 68.56984559351892 DH: 9.47920650095603 (kcal/mol)
C                     0.10830200           0.12473400           0.30476200         
C                    -0.06108200           1.57398500          -0.13637800         
C                     1.10182200          -0.66420000          -0.36325500         
O                    -1.05191900          -0.52852800           0.66425800         
O                    -1.98946500          -0.47431400          -0.43554900         
O                     2.25604200          -0.32971500           0.03013300         
H                    -2.76817600          -0.12425400           0.01522400         
H                     1.50965800           0.25586900           0.87343400         
H                     0.97186500          -1.49387700          -1.07142600         
H                    -0.75898800           1.63780900          -0.98120300         
H                     0.89745700           2.01441100          -0.43416800         
H                    -0.46333100           2.16337800           0.69663100         
