12

C                     0.12069000           0.53726000           0.38399000         
C                     0.93576000           1.57616000          -0.35003000         
C                     0.76483000          -0.85187000           0.35350000         
O                    -1.11744000           0.44562000          -0.31152000         
O                    -1.93048000          -0.45847000           0.42702000         
O                     1.59207000          -1.16547000          -0.44620000         
H                    -2.24620000          -1.03954000          -0.27600000         
H                    -0.07838000           0.82612000           1.42794000         
H                     0.34518000          -1.59350000           1.07301000         
H                     1.82909000           1.83006000           0.22647000         
H                     1.24247000           1.18066000          -1.32287000         
H                     0.32766000           2.47588000          -0.49366000         
12

C                     1.08391000           0.78806000           0.55704000         
C                    -0.18161000           1.00342000          -0.26042000         
C                     1.40456000          -0.69532000           0.51058000         
O                    -1.12014000           0.14222000           0.33453000         
O                    -2.27221000           0.10923000          -0.45723000         
O                     1.55677000          -1.27929000          -0.52778000         
H                    -2.16911000          -0.72825000          -0.92780000         
H                     0.94931000           1.12805000           1.59053000         
H                     1.49839000          -1.22650000           1.48307000         
H                     1.91608000           1.34522000           0.10249000         
H                    -0.00188000           0.69717000          -1.30133000         
H                    -0.52821000           2.04503000          -0.23460000         
12
DE: 103.01948963400487  DG: 98.87792693401006 DH: 0.9660611854684584 (kcal/mol)
C                     0.76917000           0.66800800           0.67029600         
C                     0.58298400           1.44292500          -0.48712000         
C                     1.00283000          -0.79221200           0.45825600         
O                    -1.11868300           0.18674100          -0.02107100         
O                    -2.38218800          -0.36827700           0.00121600         
O                     1.50717700          -1.22383900          -0.54593000         
H                    -2.31333900          -1.10530400          -0.61760800         
H                     0.53094600           1.07982500           1.64859000         
H                     0.69551800          -1.43412800           1.30593600         
H                     1.78612000           1.31753500           0.20319200         
H                     0.81538600           0.98052200          -1.44396200         
H                     0.30501600           2.49222400          -0.41846500         
