12

C                    -0.57688000           0.36853000           0.29542000         
C                    -1.87322000           1.12711000          -0.06708000         
C                     0.86296000           1.00586000           0.12229000         
O                    -0.65285000          -0.82171000          -0.44826000         
O                     0.28327000          -1.71843000           0.09916000         
O                     1.88467000           0.36049000           0.02773000         
H                     1.12913000          -1.30279000          -0.13557000         
H                    -0.59849000           0.11572000           1.37240000         
H                     0.92596000           2.11266000           0.16410000         
H                    -2.68316000           0.76815000           0.58072000         
H                    -1.78553000           2.21594000           0.04948000         
H                    -2.13562000           0.89793000          -1.10576000         
12

C                    -1.47085000          -0.16995000           0.38256000         
C                    -2.18023000           0.93049000           0.14490000         
C                     1.68161000           1.36705000          -0.35652000         
O                    -0.60761000          -0.67404000          -0.53750000         
O                     0.21526000          -1.64337000           0.06343000         
O                     2.02439000           0.43725000           0.32912000         
H                     1.01113000          -1.10533000           0.24136000         
H                    -1.53002000          -0.76268000           1.29280000         
H                     2.21043000           2.34126000          -0.29454000         
H                    -2.89846000           1.27177000           0.88630000         
H                     0.83569000           1.28021000          -1.06850000         
H                    -2.08039000           1.48139000          -0.79225000         
12
DE: 97.46226550201729  DG: 92.60722450050467 DH: 29.33006692160612 (kcal/mol)
C                    -1.25595100          -0.18919700           0.36536700         
C                    -1.80036500           1.07314400          -0.03009500         
C                     1.32481400           1.31969800          -0.08916800         
O                    -0.63245500          -0.87088800          -0.48441100         
O                     0.37871500          -1.65860700           0.07594400         
O                     1.93210300           0.22760200           0.10160300         
H                     1.27733900          -0.68107700           0.11530400         
H                    -1.08769400          -0.47133600           1.41125800         
H                     2.09681100           2.12526000          -0.14621900         
H                    -2.49457200           1.52779900           0.67719600         
H                    -0.72784600           1.56403400           0.00045700         
H                    -2.10192900           1.12859200          -1.07970700         
