12

C                    -0.01033000           0.38967000           0.29667000         
C                     0.57902000           1.74673000          -0.03830000         
C                     0.89512000          -0.74136000          -0.16571000         
O                    -1.26733000           0.29666000          -0.33768000         
O                    -1.90003000          -0.83647000           0.24166000         
O                     2.07677000          -0.75206000           0.03594000         
H                    -2.53563000          -1.05328000          -0.45239000         
H                    -0.15230000           0.28772000           1.38496000         
H                     0.37916000          -1.55845000          -0.71985000         
H                     0.64627000           1.87220000          -1.12546000         
H                     1.58666000           1.79985000           0.38611000         
H                    -0.04502000           2.54444000           0.37676000         
12

C                    -0.51131000           0.83940000           0.64633000         
C                     0.42713000           1.81476000          -0.03492000         
C                     1.65929000          -1.63901000          -0.35991000         
O                    -1.45932000           0.43983000          -0.32265000         
O                    -2.01843000          -0.77729000           0.15232000         
O                     2.38771000          -0.82336000          -0.09607000         
H                    -2.44974000          -1.08500000          -0.65316000         
H                    -1.01752000           1.29308000           1.51218000         
H                     0.02385000          -0.05084000           0.99269000         
H                     0.91555000           1.33775000          -0.89301000         
H                     1.19884000           2.14853000           0.66859000         
H                    -0.12586000           2.69243000          -0.39375000         
12
DE: 89.59392388151487  DG: 84.74704050351734 DH: -0.7382887189292403 (kcal/mol)
C                    -0.18218700           0.49628400           0.42932200         
C                     0.58779600           1.63897900          -0.14752200         
C                     1.13503500          -1.14930700          -0.07525000         
O                    -1.45788600           0.42320300          -0.14348000         
O                    -1.87585400          -0.93742500           0.03432400         
O                     2.21911500          -0.73149300          -0.03745700         
H                    -2.51357500          -1.02886500          -0.68586300         
H                    -0.22753700           0.46885700           1.53021900         
H                     0.01648300          -1.16675300          -0.01302700         
H                     0.47465600           1.65488600          -1.23977500         
H                     1.65347400           1.50760100           0.09347600         
H                     0.26963800           2.61425800           0.24857500         
