17

C                    -0.78700000          -0.88759000          -0.28170000         
C                    -2.07292000          -0.34156000           0.33772000         
C                     2.78210000          -0.06393000           0.03191000         
C                    -2.61038000           0.93606000          -0.30649000         
C                     0.43878000          -0.06081000           0.01526000         
O                     1.56186000          -0.76169000          -0.20153000         
O                     0.45057000           1.07972000           0.40246000         
H                    -0.57449000          -1.90542000           0.06907000         
H                    -0.86919000          -0.95641000          -1.38015000         
H                    -2.83122000          -1.13557000           0.27193000         
H                    -1.90007000          -0.15963000           1.40864000         
H                     2.81213000           0.32891000           1.05600000         
H                     3.58294000          -0.79070000          -0.12691000         
H                     2.88423000           0.77340000          -0.66761000         
H                    -2.81510000           0.78780000          -1.37463000         
H                    -3.54783000           1.22901000           0.17521000         
H                    -1.89660000           1.75643000          -0.19954000         
17

C                    -0.97968000          -1.26433000          -0.73358000         
C                    -1.08007000          -1.00212000           0.76794000         
C                     2.17713000           0.20144000           0.51853000         
C                    -1.33098000           1.74143000          -0.16480000         
C                    -0.06920000          -0.29076000          -0.08024000         
O                     1.23929000          -0.72241000           0.00686000         
O                    -0.11252000           1.07011000          -0.34732000         
H                    -0.52672000          -2.19822000          -1.06244000         
H                    -1.77785000          -0.88162000          -1.36744000         
H                    -1.97416000          -0.48451000           1.13219000         
H                    -0.69379000          -1.75941000           1.43706000         
H                     1.86142000           0.61043000           1.49304000         
H                     3.11167000          -0.35549000           0.64962000         
H                     2.33595000           1.03570000          -0.17691000         
H                    -2.14199000           1.30751000          -0.77094000         
H                    -1.63228000           1.75031000           0.89545000         
H                    -1.17078000           2.77198000          -0.49169000         
17
DE: 131.75503216747128  DG: 128.55724375548354 DH: 35.20697896749522 (kcal/mol)
C                    -0.80227100          -1.28078500          -0.33751200         
C                    -1.98184600          -0.88708900           0.46151000         
C                     2.54428500           0.27883500           0.17342000         
C                    -1.57981700           1.57612300          -0.15322300         
C                     0.27263300          -0.24448400          -0.12120200         
O                     1.51056600          -0.66967200          -0.11298600         
O                     0.04912500           0.95508500           0.09357700         
H                    -0.29948200          -2.24696600          -0.14206100         
H                    -1.00487300          -1.25545900          -1.42304000         
H                    -2.95159600          -0.98220300          -0.02824500         
H                    -1.97521300          -1.23110000           1.49836500         
H                     2.36650900           0.73933600           1.15054400         
H                     3.47654200          -0.28875600           0.17424500         
H                     2.56454900           1.05685100          -0.59633100         
H                    -2.15109200           1.14796500          -0.97230700         
H                    -2.12598600           1.60300800           0.78241300         
H                    -1.09478300           2.51842500          -0.42626700         
