17

C                     0.84288000          -0.99958000           0.59091000         
C                     2.01337000          -0.29498000          -0.11682000         
C                    -2.16058000           1.03727000           0.02870000         
C                     1.93827000           1.22722000          -0.04030000         
C                    -0.46174000          -0.57059000          -0.02452000         
O                    -1.00418000           0.46648000           0.63272000         
O                    -0.95097000          -1.03880000          -1.01730000         
H                     0.92698000          -2.08684000           0.47228000         
H                     0.83903000          -0.74147000           1.65610000         
H                     2.94535000          -0.64639000           0.34148000         
H                     2.03757000          -0.61639000          -1.16652000         
H                    -2.46745000           1.86256000           0.67484000         
H                    -1.92507000           1.40152000          -0.97804000         
H                    -2.96030000           0.29165000          -0.04841000         
H                     1.88422000           1.56890000           1.00581000         
H                     1.05848000           1.61084000          -0.56160000         
H                     2.82687000           1.68394000          -0.50730000         
17

C                     0.24421000          -1.48822000           1.16168000         
C                     2.44931000           0.26838000          -0.80064000         
C                    -1.97611000           1.14858000          -0.10057000         
C                     2.11084000           1.43204000          -0.25493000         
C                    -0.58952000          -0.71090000           0.18322000         
O                    -1.12854000           0.37882000           0.74663000         
O                    -0.79312000          -1.01687000          -0.96163000         
H                     0.95515000          -2.10772000           0.61211000         
H                    -0.42236000          -2.14046000           1.74092000         
H                     3.41678000          -0.19708000          -0.59073000         
H                     1.77575000          -0.25775000          -1.47736000         
H                    -2.35474000           1.96967000           0.51304000         
H                    -1.40750000           1.53757000          -0.95690000         
H                    -2.80252000           0.53439000          -0.48166000         
H                     0.75588000          -0.81062000           1.84607000         
H                     1.14588000           1.89858000          -0.46546000         
H                     2.77982000           1.96177000           0.42465000         
17
DE: 111.76822708299602  DG: 105.9336437519953 DH: 22.36448374760994 (kcal/mol)
C                     0.54222100          -1.25158300           0.83139700         
C                     2.09328100          -0.05042700          -0.42529400         
C                    -2.09207900           1.05661100          -0.05077700         
C                     2.02465200           1.32799000          -0.14031000         
C                    -0.57199700          -0.73732400           0.08825300         
O                    -1.06583400           0.39839400           0.67467600         
O                    -0.95152100          -1.08346100          -1.01428900         
H                     0.89605600          -2.23767000           0.53648400         
H                     0.58245100          -1.00579300           1.89397100         
H                     2.91309300          -0.64350800          -0.02728100         
H                     1.54650000          -0.45975100          -1.27481800         
H                    -2.37412000           1.93227600           0.53992800         
H                    -1.73850000           1.36088000          -1.04344000         
H                    -2.95545200           0.39485600          -0.18567500         
H                     1.30253000           0.34032800           0.51508600         
H                     1.29993100           1.95512300          -0.65257000         
H                     2.68987600           1.77219100           0.59560500         
