17

C                    -0.76225000          -0.58143000          -0.05307000         
C                    -1.94361000           0.37684000          -0.00997000         
C                     2.88447000          -0.15586000           0.10039000         
C                    -3.27690000          -0.36312000          -0.01026000         
C                     0.56684000           0.12887000          -0.02475000         
O                     1.58547000          -0.73785000           0.06002000         
O                     0.72440000           1.31883000          -0.07205000         
H                    -0.77888000          -1.28663000           0.79034000         
H                    -0.78159000          -1.20317000          -0.96133000         
H                    -1.85540000           1.00744000           0.88728000         
H                    -1.87927000           1.06585000          -0.86118000         
H                     2.99081000           0.47814000           0.98926000         
H                     3.59033000          -0.98930000           0.13786000         
H                     3.05788000           0.45906000          -0.79046000         
H                    -4.11996000           0.33851000           0.01449000         
H                    -3.38156000          -0.98706000          -0.90773000         
H                    -3.36012000          -1.02229000           0.86452000         
17

C                    -0.70029000          -0.72853000           0.23525000         
C                    -1.94212000           0.10462000           0.12606000         
C                     2.89641000          -0.05427000          -0.08442000         
C                    -3.06872000          -0.30871000          -0.44836000         
C                     0.56431000           0.07066000           0.02105000         
O                     1.64411000          -0.71916000           0.05954000         
O                     0.62551000           1.25936000          -0.13483000         
H                    -0.61228000          -1.16170000           1.24733000         
H                    -0.70604000          -1.57451000          -0.46131000         
H                    -4.11382000           2.02706000           1.86810000         
H                    -1.88716000           1.10053000           0.57060000         
H                     3.03048000           0.68354000           0.71450000         
H                     3.66216000          -0.83066000          -0.02406000         
H                     2.94576000           0.46147000          -1.04995000         
H                    -4.44473000           2.59954000           1.50075000         
H                    -3.14357000          -1.29417000          -0.91159000         
H                    -3.95598000           0.32489000          -0.46837000         
17
DE: 129.90513416150475  DG: 122.90903074601167 DH: 30.963432122370946 (kcal/mol)
C                    -0.67121400          -0.64913000           0.09378900         
C                    -1.88195800           0.23873000           0.19323200         
C                     2.96085800          -0.09061500          -0.00512800         
C                    -3.14332000          -0.26855300          -0.28271100         
C                     0.63183500           0.10657600          -0.01807900         
O                     1.68191800          -0.71078600           0.10750700         
O                     0.73692400           1.28864600          -0.20212000         
H                    -0.59505900          -1.35297700           0.93426800         
H                    -0.77743600          -1.29140400          -0.79965800         
H                    -2.93331800           1.01928200           1.12564300         
H                    -1.62290300           1.28911600           0.11565000         
H                     3.08393500           0.67071600           0.77289900         
H                     3.69699300          -0.88794100           0.11616200         
H                     3.06720200           0.38778500          -0.98501400         
H                    -3.60807300           1.02139000           0.40314900         
H                    -3.11514800          -0.88699500          -1.19971100         
H                    -3.92413700          -0.61389900           0.38689600         
