17

C                     0.84911000           0.59759000           0.38070000         
C                     1.68520000          -0.51433000          -0.25612000         
C                    -2.48219000          -0.89305000          -0.09212000         
C                     3.17164000          -0.34816000           0.04133000         
C                    -0.61939000           0.51559000           0.04849000         
O                    -1.09814000          -0.72748000           0.19957000         
O                    -1.30696000           1.43597000          -0.30234000         
H                     0.94210000           0.54750000           1.47611000         
H                     1.18730000           1.59025000           0.06254000         
H                     1.32639000          -1.48251000           0.11393000         
H                     1.52144000          -0.51257000          -1.34343000         
H                    -3.08704000          -0.21968000           0.52334000         
H                    -2.67852000          -0.67290000          -1.14642000         
H                    -2.71725000          -1.93506000           0.13079000         
H                     3.35784000          -0.34287000           1.12442000         
H                     3.75657000          -1.16535000          -0.39792000         
H                     3.55202000           0.59757000          -0.36821000         
17

C                     0.64188000           0.65068000           0.35985000         
C                     1.52843000          -0.43774000          -0.20450000         
C                    -2.55531000          -0.85440000          -0.20448000         
C                     2.99726000          -0.02711000          -0.26747000         
C                    -0.77532000           0.39698000           0.58943000         
O                    -1.24007000          -0.85788000           0.30972000         
O                    -0.37516000           1.19130000          -0.49504000         
H                    -1.34959000           0.93054000           1.35847000         
H                     1.13541000           1.40595000           0.98209000         
H                     1.41123000          -1.34342000           0.41005000         
H                     1.13957000          -0.68816000          -1.20098000         
H                    -3.25865000          -0.40729000           0.51606000         
H                    -2.60336000          -0.29229000          -1.14543000         
H                    -2.84137000          -1.89594000          -0.38312000         
H                     3.38720000           0.18714000           0.73689000         
H                     3.60933000          -0.82697000          -0.69992000         
H                     3.13300000           0.87252000          -0.88163000         
17
DE: 112.87452633148513  DG: 107.95610687048986 DH: 41.108269598470365 (kcal/mol)
C                     0.76467500           0.60909000           0.31265500         
C                     1.61082400          -0.49265300          -0.11058400         
C                    -2.51235800          -0.86509800          -0.10326500         
C                     3.11490200          -0.27140400          -0.11947300         
C                    -0.68748500           0.56738000           0.31126400         
O                    -1.12345200          -0.76717600           0.13468500         
O                    -1.19193700           1.49867500          -0.42779800         
H                    -0.74602600           0.74654000           1.48784200         
H                     1.16720300           1.58604900           0.59111300         
H                     1.28637400          -1.36734900           0.48035800         
H                     1.18401800          -0.74966400          -1.10538300         
H                    -3.08539200          -0.64537900           0.81152900         
H                    -2.81333500          -0.15960400          -0.88597900         
H                    -2.71454300          -1.89562700          -0.41209900         
H                     3.48571700          -0.06751500           0.89234000         
H                     3.63320600          -1.15959900          -0.49683500         
H                     3.38254500           0.57626400          -0.76157200         
