17

C                    -0.81436000           0.32108000           0.56646000         
C                    -1.79933000          -0.08291000          -0.53400000         
C                     2.57989000          -0.88408000          -0.07886000         
C                    -3.17875000          -0.37281000           0.05094000         
C                     0.61863000           0.42884000           0.11128000         
O                     1.15733000          -0.78996000          -0.08906000         
O                     1.22989000           1.45322000          -0.02358000         
H                    -1.09225000           1.29216000           0.98890000         
H                    -0.84142000          -0.43416000           1.36556000         
H                    -1.85933000           0.72181000          -1.27989000         
H                    -1.41659000          -0.97526000          -1.05062000         
H                     2.92535000          -1.07940000           0.94944000         
H                     2.85384000          -1.72310000          -0.72677000         
H                     3.02652000           0.04442000          -0.44982000         
H                    -3.55830000           0.48696000           0.61122000         
H                    -3.90485000          -0.61171000          -0.73457000         
H                    -3.13447000          -1.22456000           0.73513000         
17

C                    -0.82011000           0.35620000           0.91153000         
C                    -1.64698000           0.27834000          -0.36270000         
C                     2.56516000          -1.24857000          -0.35614000         
C                    -2.96045000          -0.46649000          -0.14844000         
C                     0.49225000           1.06444000           0.73966000         
O                     1.39328000          -1.50338000          -0.44737000         
O                     0.84549000           1.63346000          -0.25956000         
H                    -1.36699000           0.87692000           1.71806000         
H                    -0.59374000          -0.64741000           1.30128000         
H                    -1.83905000           1.29614000          -0.72982000         
H                    -1.03869000          -0.21951000          -1.13035000         
H                     1.15690000           1.04541000           1.63853000         
H                     3.34589000          -1.96305000          -0.67297000         
H                     2.92172000          -0.28200000           0.03641000         
H                    -3.57918000           0.03504000           0.60563000         
H                    -3.54155000          -0.52216000          -1.07712000         
H                    -2.77549000          -1.49243000           0.19590000         
17
DE: 86.54046265448378  DG: 83.19583701951007 DH: 32.03322179732313 (kcal/mol)
C                    -0.54559200           0.06400500           0.70877100         
C                    -1.55587400           0.09681200          -0.43541900         
C                     2.20739000          -0.84558500           0.19963700         
C                    -2.93675100          -0.35922700           0.02331000         
C                     0.78648500           0.60506000           0.25407700         
O                     1.28250800          -0.92832100          -0.68578100         
O                     1.10152900           1.62069000          -0.25486300         
H                    -0.86599200           0.72601500           1.52694900         
H                    -0.41945300          -0.94916300           1.10123000         
H                    -1.60235500           1.11719100          -0.83758900         
H                    -1.17466800          -0.55028200          -1.23451700         
H                     1.65600900           0.08341800           1.13835700         
H                     2.39019900          -1.68998600           0.89103700         
H                     3.09151300          -0.20905500           0.01584000         
H                    -3.32636900           0.28942800           0.81945600         
H                    -3.65097700          -0.33654400          -0.80834800         
H                    -2.90415900          -1.38635900           0.41048300         
