17

C                    -0.68667000          -0.96878000          -0.02948000         
C                    -1.98722000          -0.42971000           0.56406000         
C                     2.78954000           0.21778000          -0.09895000         
C                    -2.78418000           0.43791000          -0.40494000         
C                     0.45348000           0.02122000           0.00303000         
O                     1.62525000          -0.59228000          -0.22089000         
O                     0.36465000           1.19992000           0.22033000         
H                    -0.33523000          -1.86082000           0.50502000         
H                    -0.82308000          -1.28240000          -1.07556000         
H                    -2.60028000          -1.28422000           0.87785000         
H                    -1.75081000           0.14472000           1.46937000         
H                     3.63063000          -0.39872000          -0.41022000         
H                     2.70827000           1.10588000          -0.74137000         
H                     2.91940000           0.54372000           0.93955000         
H                    -3.70001000           0.81623000           0.06564000         
H                    -2.18374000           1.29896000          -0.72634000         
H                    -3.07208000          -0.13537000          -1.29630000         
17

C                    -0.84574000          -0.52834000           0.04084000         
C                    -2.25638000          -0.48805000           0.59900000         
C                     3.12655000          -0.15243000           0.13626000         
C                    -3.27400000           0.12744000          -0.36346000         
C                    -0.06307000           0.52963000           0.06982000         
O                     2.15137000          -0.89870000          -0.56054000         
O                     0.56246000           1.50485000           0.14586000         
H                     2.08458000          -1.76439000          -0.14840000         
H                    -0.46505000          -1.38228000          -0.51313000         
H                    -2.54826000          -1.51698000           0.84573000         
H                    -2.26696000           0.06674000           1.54703000         
H                     4.13401000          -0.57500000           0.00882000         
H                     3.12029000           0.85990000          -0.28113000         
H                     2.90349000          -0.07321000           1.21186000         
H                    -4.28775000           0.10319000           0.06182000         
H                    -3.01550000           1.17290000          -0.57932000         
H                    -3.28636000          -0.41774000          -1.31647000         
17
DE: 77.68065602398768  DG: 72.90405370999105 DH: 39.89483747609942 (kcal/mol)
C                    -0.58144100          -0.72525800          -0.03261900         
C                    -1.92639100          -0.46391400           0.60295000         
C                     2.84016200          -0.11052800           0.19546700         
C                    -2.91842000           0.23033400          -0.33345400         
C                     0.33368700           0.33465500          -0.15887400         
O                     1.65924100          -0.59252100          -0.42704300         
O                     0.51926100           1.47154500           0.08505900         
H                     0.83224500          -1.20366700           0.19929700         
H                    -0.54130600          -1.42661900          -0.87195900         
H                    -2.34137300          -1.42260700           0.94193200         
H                    -1.78178400           0.14798700           1.50407700         
H                     3.70302900          -0.56541600          -0.30030600         
H                     2.87002600           0.97982500           0.08164500         
H                     2.84849900          -0.36012500           1.26552700         
H                    -3.88512800           0.39573600           0.15983600         
H                    -2.52505600           1.20466100          -0.65140200         
H                    -3.09275400          -0.37370300          -1.23359200         
