17

C                     0.97378000           0.83820000           0.47970000         
C                     1.70642000           0.44377000          -0.80616000         
C                    -2.42326000          -0.20868000          -0.47377000         
C                     2.21014000          -0.99619000          -0.76529000         
C                    -0.36675000           0.15778000           0.58751000         
O                    -1.13223000           0.41125000          -0.48829000         
O                    -0.74178000          -0.52658000           1.50306000         
H                     1.55376000           0.55703000           1.36802000         
H                     0.79865000           1.91985000           0.50261000         
H                     1.02894000           0.58212000          -1.64841000         
H                     2.55021000           1.13143000          -0.97297000         
H                    -2.99061000           0.26268000          -1.30086000         
H                    -2.32729000          -1.29971000          -0.63702000         
H                    -2.91699000          -0.02585000           0.46966000         
H                     2.60362000          -1.30055000          -1.74060000         
H                     3.02305000          -1.09377000          -0.02782000         
H                     1.41036000          -1.69971000          -0.47280000         
17

C                     1.18653000           2.02324000           0.60060000         
C                     1.76998000           1.96883000          -0.59506000         
C                    -2.09829000           0.24345000          -0.39735000         
C                     0.97657000          -1.75566000          -0.36678000         
C                    -0.19242000          -0.99578000           0.19663000         
O                    -0.98177000          -0.54329000          -0.78812000         
O                    -0.41125000          -0.79925000           1.36198000         
H                     1.54598000           1.46020000           1.45034000         
H                     0.30441000           2.67201000           0.79922000         
H                     1.39526000           2.53447000          -1.44701000         
H                     2.64838000           1.35359000          -0.75757000         
H                    -2.73449000           0.33310000          -1.29200000         
H                    -2.64779000          -0.22992000           0.43684000         
H                    -1.75743000           1.24249000          -0.07752000         
H                     1.60340000          -1.03847000          -0.93723000         
H                     1.56256000          -2.16530000           0.44523000         
H                     0.63265000          -2.52574000          -1.03662000         
17
DE: 120.51068943700302  DG: 118.82833646750585 DH: 22.36448374760994 (kcal/mol)
C                     0.60500000           1.37540900           0.47625900         
C                     1.56004700           0.86324700          -0.42805700         
C                    -2.18921000           0.17909600          -0.31538400         
C                     1.25998900          -1.24219500          -0.47642900         
C                     0.02831100          -0.20945700           0.30577600         
O                    -0.88299100          -0.13185200          -0.76302100         
O                    -0.22631000          -0.75263000           1.38444400         
H                     0.89668400           1.50032600           1.51620700         
H                    -0.14932500           2.06107700           0.09478500         
H                     1.38448900           0.98120300          -1.49500100         
H                     2.57846200           0.63898500          -0.11784100         
H                    -2.83892400           0.13587900          -1.19443800         
H                    -2.51632300          -0.54268000           0.44135300         
H                    -2.23661500           1.19030400           0.11977100         
H                     1.68034400          -1.16148700          -1.48575300         
H                     2.00351600          -1.50382500           0.27894200         
H                     0.48727600          -2.02052700          -0.50239800         
