17

C                     0.69043000          -1.04700000           0.01445000         
C                     2.04188000          -0.48071000          -0.40685000         
C                    -2.69759000           0.35945000           0.27412000         
C                     2.56173000           0.58910000           0.54843000         
C                    -0.43596000          -0.05501000          -0.15054000         
O                    -1.56616000          -0.49401000           0.41688000         
O                    -0.36600000           0.99375000          -0.73320000         
H                     0.69029000          -1.38330000           1.06027000         
H                     0.41710000          -1.92585000          -0.58969000         
H                     2.76292000          -1.30616000          -0.46967000         
H                     1.94359000          -0.05696000          -1.41524000         
H                    -3.52178000          -0.13833000           0.78962000         
H                    -2.49706000           1.33763000           0.72383000         
H                    -2.93597000           0.50361000          -0.78530000         
H                     3.53594000           0.97145000           0.22166000         
H                     1.86354000           1.43404000           0.59343000         
H                     2.68151000           0.18363000           1.56200000         
17

C                     0.50123000          -1.21073000          -0.17305000         
C                     1.63898000          -1.05732000          -0.84886000         
C                    -2.74906000           0.39052000           0.27026000         
C                     3.14659000           1.19894000           1.03526000         
C                    -0.51417000          -0.12524000          -0.17695000         
O                    -1.68799000          -0.55884000           0.29548000         
O                    -0.33436000           1.00015000          -0.56672000         
H                     3.00541000           0.43787000           1.80902000         
H                     0.24673000          -2.12380000           0.36549000         
H                     2.39483000          -1.84093000          -0.87798000         
H                     1.82756000          -0.12770000          -1.39037000         
H                    -3.62457000          -0.11949000           0.67743000         
H                    -2.49285000           1.26473000           0.87929000         
H                    -2.93748000           0.72250000          -0.75686000         
H                     3.80391000           0.80710000           0.24981000         
H                     2.16970000           1.45720000           0.60380000         
H                     3.60854000           2.08980000           1.47530000         
17
DE: 104.67674222349407  DG: 99.76899042400754 DH: 17.691921606118537 (kcal/mol)
C                     0.54686100          -1.05458200           0.02551300         
C                     1.83116500          -0.60208800          -0.52651800         
C                    -2.79626100           0.33149500           0.17031900         
C                     2.74878800           0.70827700           0.54201600         
C                    -0.52135400          -0.12224800          -0.11781000         
O                    -1.72633200          -0.59063700           0.28020300         
O                    -0.38555700           1.01814800          -0.54854200         
H                     1.65556600          -0.14607600           0.62090400         
H                     0.43110200          -2.03241500           0.47773800         
H                     2.61411700          -1.35679700          -0.57600200         
H                     1.75447600           0.07711600          -1.37740800         
H                    -3.68909500          -0.19163200           0.52337700         
H                    -2.61078900           1.22227700           0.78282800         
H                    -2.93054700           0.65380100          -0.86898300         
H                     3.70120100           0.64845500           0.01400500         
H                     2.22590700           1.65275100           0.37954300         
H                     2.88798100           0.48731500           1.60958700         
