13

C                    -0.11089000          -0.19088000           0.92936000         
C                    -2.10334000          -0.73995000          -0.61038000         
C                    -1.26245000           0.31549000           0.06115000         
C                     1.86734000          -0.48248000          -0.32854000         
O                     0.74110000          -1.03452000           0.14884000         
O                    -1.47258000           1.49672000          -0.04349000         
O                     2.22685000           0.63786000          -0.13528000         
H                     2.41494000          -1.23531000          -0.92345000         
H                    -0.50055000          -0.81123000           1.74671000         
H                     0.44327000           0.67197000           1.31312000         
H                    -2.77370000          -0.26725000          -1.33261000         
H                    -1.46215000          -1.48183000          -1.09713000         
H                    -2.69231000          -1.26354000           0.15395000         
13

C                    -0.03228000           0.08347000           0.99696000         
C                    -2.06961000          -0.78911000          -0.33616000         
C                    -1.20459000           0.37937000           0.05236000         
C                     1.21196000          -0.19133000           0.18679000         
O                     1.09119000          -1.32552000          -0.53117000         
O                    -1.38867000           1.50063000          -0.34934000         
O                     2.18452000           0.49624000           0.14799000         
H                     1.88989000          -1.41733000          -1.06308000         
H                    -0.24277000          -0.79801000           1.61537000         
H                     0.15520000           0.96764000           1.61085000         
H                    -2.79459000          -0.47608000          -1.09291000         
H                    -1.42792000          -1.59620000          -0.71773000         
H                    -2.58924000          -1.17172000           0.55748000         
13
DE: 134.68487402299345  DG: 125.60292902952315 DH: -13.187380497131914 (kcal/mol)
C                    -0.35294000          -0.23015800           1.17723700         
C                    -2.28470200          -0.60495400          -0.41776300         
C                    -1.21107200           0.31478400           0.13160600         
C                     1.71743100          -0.15840000          -0.17377400         
O                     1.13769800          -1.20588100          -0.22890700         
O                    -1.05684900           1.44374700          -0.30674800         
O                     2.23547900           0.85356300          -0.08385900         
H                     2.31935100          -1.47208200          -1.13172500         
H                    -0.59013400          -1.19348400           1.62507000         
H                     0.18358000           0.49634900           1.78982200         
H                    -2.71733600          -0.15205100          -1.31447500         
H                    -1.86667200          -1.59244000          -0.65202900         
H                    -3.07171000          -0.74535200           0.33560800         
