13

C                    -0.30266000           0.16895000           1.03147000         
C                    -2.09217000          -1.10259000          -0.31774000         
C                    -1.42356000           0.20923000          -0.00940000         
C                     1.80391000           0.23807000          -0.04564000         
O                     0.81345000          -0.51500000           0.47667000         
O                    -1.70190000           1.24800000          -0.55108000         
O                     2.76461000          -0.23352000          -0.55556000         
H                     1.62024000           1.32907000           0.06538000         
H                    -0.60902000          -0.38647000           1.92640000         
H                    -0.04858000           1.20237000           1.29928000         
H                    -1.32867000          -1.86131000          -0.52947000         
H                    -2.65662000          -1.43889000           0.56306000         
H                    -2.76726000          -0.98112000          -1.16939000         
13

C                    -0.80230000           0.61363000           1.52826000         
C                    -2.28187000          -0.88716000           0.05909000         
C                    -1.46701000           0.37872000           0.18828000         
C                     1.94610000          -0.41023000          -0.35564000         
O                     1.08530000          -1.17841000          -0.44518000         
O                    -1.35096000           1.15858000          -0.72217000         
O                     2.81023000           0.34949000          -0.25569000         
H                    -0.09367000           1.44440000           1.44697000         
H                    -0.30319000          -0.29859000           1.87813000         
H                    -1.57459000           0.86865000           2.27121000         
H                    -1.58934000          -1.73989000           0.02196000         
H                    -2.94157000          -1.02510000           0.92602000         
H                    -2.86369000          -0.84940000          -0.86706000         
13
DE: 95.1793859410025  DG: 89.9798422240036 DH: -23.64651051625239 (kcal/mol)
C                    -0.25600900           0.39205200           1.08526600         
C                    -2.06020800          -1.01724000          -0.08118200         
C                    -1.31829700           0.28590000           0.02079600         
C                     1.70208500           0.03366600          -0.08591800         
O                     0.84328400          -0.87689700          -0.23950300         
O                    -1.54834300           1.26012900          -0.64800800         
O                     2.88009200           0.09475700          -0.23158300         
H                     1.16902800           1.02284400           0.34129100         
H                    -0.10847800          -0.42848600           1.78449100         
H                    -0.13621600           1.39705500           1.49592000         
H                    -1.34631100          -1.84203800          -0.16908700         
H                    -2.66861900          -1.16396200           0.82217800         
H                    -2.71509900          -0.97559100          -0.95581300         
