13

C                    -0.04889000           1.09797000          -0.09973000         
C                    -1.14862000          -1.12460000          -0.89561000         
C                    -1.20671000           0.10540000          -0.02805000         
C                     1.82725000          -0.29082000          -0.01583000         
O                     1.12579000           0.59254000          -0.72951000         
O                    -2.13832000           0.37053000           0.68485000         
O                     1.49849000          -0.71122000           1.05384000         
H                     2.74526000          -0.57478000          -0.56105000         
H                     0.16508000           1.44390000           0.91636000         
H                    -0.37333000           1.94708000          -0.71383000         
H                    -0.43119000          -1.83208000          -0.45956000         
H                    -2.14147000          -1.58154000          -0.91789000         
H                    -0.80687000          -0.87465000          -1.90664000         
13

C                    -0.06496000           1.00244000          -0.06244000         
C                    -1.15667000          -1.18038000          -0.65292000         
C                    -1.12060000           0.18247000          -0.04741000         
C                     1.92489000          -0.25999000          -0.08761000         
O                     1.13837000           0.66170000          -0.67546000         
O                    -2.29306000           0.52165000           0.54163000         
O                     1.65422000          -0.89628000           0.88106000         
H                     2.86575000          -0.33850000          -0.66123000         
H                    -2.21707000           1.38925000           0.95058000         
H                    -0.07502000           2.00260000           0.37152000         
H                    -1.09026000          -1.94106000           0.13971000         
H                    -2.11205000          -1.30573000          -1.17924000         
H                    -0.33013000          -1.32078000          -1.35511000         
13
DE: 65.71279483999132  DG: 62.41899747453196 DH: 16.207695984703644 (kcal/mol)
C                    -0.08324100           1.10547800          -0.20206400         
C                    -1.18419400          -1.27677100          -0.69896200         
C                    -1.07236100           0.06439100          -0.07698400         
C                     1.86284000          -0.15380000           0.07458300         
O                     1.24215400           0.81886000          -0.58481400         
O                    -1.94669300           0.49687400           0.73540700         
O                     1.34057200          -0.90147300           0.85264600         
H                     2.92869500          -0.18352300          -0.21032100         
H                    -1.06262400           1.35816600           0.91197600         
H                    -0.45961200           1.92105300          -0.82654400         
H                    -0.80522600          -2.00840600           0.02688600         
H                    -2.24148200          -1.48963000          -0.89459200         
H                    -0.58628300          -1.34754200          -1.61275900         
