13

C                    -0.45516000           1.07833000          -0.18138000         
C                    -2.71765000          -0.17042000          -0.11984000         
C                    -1.25192000          -0.15876000           0.23103000         
C                     1.50570000          -0.10439000          -0.52838000         
O                     0.90783000           0.92333000           0.10961000         
O                    -0.70395000          -1.07061000           0.79098000         
O                     2.60526000          -0.47369000          -0.27730000         
H                     0.87287000          -0.53503000          -1.33407000         
H                    -0.81849000           1.94533000           0.38047000         
H                    -0.62532000           1.28222000          -1.25098000         
H                    -3.06568000          -1.20832000          -0.14656000         
H                    -3.27761000           0.36531000           0.66063000         
H                    -2.91242000           0.32841000          -1.07443000         
13

C                    -0.52553000           1.32065000          -0.01379000         
C                    -2.44403000          -0.38564000           0.15871000         
C                    -1.10795000          -0.02465000          -0.43581000         
C                     1.08983000          -0.26371000           0.07334000         
O                     0.87239000           1.06695000          -0.03327000         
O                    -0.08939000          -0.92200000           0.02389000         
O                     2.15591000          -0.76932000           0.19168000         
H                    -1.14284000          -0.09358000          -1.53538000         
H                    -0.83551000           1.59361000           1.00524000         
H                    -0.75586000           2.13639000          -0.70455000         
H                    -2.75736000          -1.37668000          -0.17319000         
H                    -2.37494000          -0.39482000           1.25133000         
H                    -3.20236000           0.34470000          -0.14638000         
13
DE: 78.25733725449416  DG: 76.89438662051099 DH: -8.976338432122347 (kcal/mol)
C                    -0.39699900           1.32940300           0.03550400         
C                    -2.27228400          -0.49857300          -0.31812200         
C                    -0.86712800          -0.12479800           0.00840200         
C                     1.14764800          -0.19643100          -0.18354600         
O                     0.99733400           1.12054600           0.10062200         
O                    -0.16060400          -0.83925600           0.81358600         
O                     2.10008100          -0.86811000          -0.30255300         
H                     0.11712100          -0.29376900          -1.14857700         
H                    -0.73860200           1.81465200           0.95868100         
H                    -0.67669500           1.91244500          -0.84973200         
H                    -2.31251600          -1.55804300          -0.58841800         
H                    -2.86415700          -0.36154400           0.59933300         
H                    -2.68706200           0.12321100          -1.11795500         
