13

C                    -0.09088000           0.94483000          -0.50899000         
C                    -2.41927000          -0.11641000          -0.61841000         
C                    -1.13630000           0.05325000           0.15409000         
C                     1.82095000          -0.19069000           0.13969000         
O                     1.11705000           0.94452000           0.22000000         
O                    -0.92377000          -0.47479000           1.21080000         
O                     1.54612000          -1.10985000          -0.57174000         
H                     2.69733000          -0.13538000           0.80718000         
H                    -0.45643000           1.97899000          -0.51648000         
H                     0.06635000           0.61018000          -1.54387000         
H                    -3.19188000          -0.51153000           0.04726000         
H                    -2.74506000           0.82691000          -1.07401000         
H                    -2.23990000          -0.83751000          -1.42818000         
13

C                    -0.08354000           1.06989000          -0.38014000         
C                    -2.09679000          -0.34799000          -0.79858000         
C                    -1.16350000           0.10719000           0.03882000         
C                     1.76683000          -0.30212000           0.04789000         
O                     1.14616000           0.84863000           0.30672000         
O                    -1.08824000          -0.17677000           1.35897000         
O                     1.39946000          -1.11745000          -0.74415000         
H                     2.67630000          -0.38217000           0.66952000         
H                    -0.37032000           2.08956000          -0.10214000         
H                     0.06344000           1.00448000          -1.46358000         
H                    -1.76346000          -0.82649000           1.58050000         
H                    -2.91127000          -0.98337000          -0.45012000         
H                    -2.04722000          -0.10479000          -1.85726000         
13
DE: 68.40355557601073  DG: 65.39339250451299 DH: 11.060707456978985 (kcal/mol)
C                     0.01254400           1.03117900          -0.44144800         
C                    -2.24028200          -0.29759900          -0.61166500         
C                    -1.07296000           0.12943700           0.06315300         
C                     1.84617800          -0.26755400           0.13411800         
O                     1.21457200           0.90120100           0.29660500         
O                    -1.00793000          -0.37004800           1.22928100         
O                     1.48353700          -1.13128700          -0.60637300         
H                     2.74486600          -0.30172600           0.77266100         
H                    -0.31453800           2.07026600          -0.31978300         
H                     0.17274000           0.82525500          -1.50716800         
H                    -1.94709500          -1.03490800           0.64130700         
H                    -3.15389800           0.03762100          -0.11054400         
H                    -2.29638600          -0.36821300          -1.69752400         
