13

C                    -0.47300000           0.98252000          -0.13821000         
C                    -2.81781000          -0.06180000          -0.03656000         
C                    -1.32598000          -0.27444000           0.00178000         
C                     1.66857000          -0.01020000          -0.29542000         
O                     0.83622000           0.83165000           0.35115000         
O                    -0.82151000          -1.36094000           0.11574000         
O                     2.81412000          -0.10445000           0.01006000         
H                     1.18632000          -0.57644000          -1.11876000         
H                    -0.93067000           1.80589000           0.42718000         
H                    -0.48834000           1.27847000          -1.20235000         
H                    -3.08037000           0.75393000          -0.72776000         
H                    -3.31080000          -0.99076000          -0.34100000         
H                    -3.16768000           0.21321000           0.97032000         
13

C                    -0.99366000           1.24076000          -0.01810000         
C                    -3.18768000          -0.12655000          -0.19914000         
C                    -1.70145000          -0.10203000           0.02665000         
C                     2.93798000          -1.01029000          -0.01426000         
O                     0.38130000           1.07736000           0.10296000         
O                    -1.04509000          -1.10397000           0.22406000         
O                     3.68156000          -0.18335000          -0.12805000         
H                     0.50398000           0.13494000           0.30122000         
H                    -1.41892000           1.86233000           0.79263000         
H                    -1.26573000           1.73471000          -0.96611000         
H                    -3.66666000           0.80160000           0.13633000         
H                    -3.35993000          -0.22457000          -1.27995000         
H                    -3.62369000          -0.99936000           0.29698000         
13
DE: 64.77404062800723  DG: 59.44711248250893 DH: 10.222036328871907 (kcal/mol)
C                    -0.53680100           1.16679200          -0.00030400         
C                    -2.73019000          -0.25580300           0.00049000         
C                    -1.24938200          -0.13826300          -0.00003900         
C                     1.99242100          -0.60202900          -0.00016100         
O                     0.77397000           1.11068300           0.00005600         
O                    -0.57435900          -1.19966500          -0.00047000         
O                     3.05672100          -0.21909300           0.00044700         
H                     0.47064000          -1.00392100          -0.00049000         
H                    -1.04516000           1.68406400           0.87045300         
H                    -1.04471400           1.68244100          -0.87241900         
H                    -3.20399300           0.73008800          -0.00014700         
H                    -3.04227300          -0.82700600          -0.88348600         
H                    -3.04143600          -0.82524400           0.88591800         
