9

C                     0.25259000           1.02348000           0.15013000         
C                    -1.21514000           0.64434000           0.10145000         
C                     1.08768000          -0.12343000          -0.37483000         
O                    -1.60681000          -0.44102000          -0.22103000         
O                     1.49675000          -0.99934000           0.33211000         
H                    -1.92172000           1.44692000           0.39711000         
H                     1.26170000          -0.13727000          -1.47666000         
H                     0.40246000           1.95196000          -0.41909000         
H                     0.51427000           1.20926000           1.20319000         
9

C                     1.08471000           1.43504000           0.26107000         
C                    -2.21324000           0.27347000          -0.22654000         
C                     1.51434000           0.11649000          -0.31660000         
O                    -1.87482000          -0.76250000           0.04180000         
O                     1.26846000          -0.95181000           0.17652000         
H                     0.38246000           1.91986000          -0.43170000         
H                     2.09035000           0.18010000          -1.27006000         
H                     1.95149000           2.10020000           0.36279000         
H                     0.60543000           1.27713000           1.23262000         
9
DE: 79.97671328450487  DG: 77.35686112198478 DH: -6.2923040152963665 (kcal/mol)
C                     0.57116300           1.18097400           0.23330200         
C                    -1.49292000           0.42102300          -0.13952900         
C                     1.19382200          -0.00070400          -0.30735700         
O                    -1.54083800          -0.70991500           0.01273800         
O                     1.11309500          -1.10416500           0.20353200         
H                    -1.16093100           1.46591600          -0.26545500         
H                     1.68543500           0.12122100          -1.30202500         
H                     0.84677800           2.14790400          -0.19799400         
H                     0.41827700           1.16984700           1.31681700         
