9

C                     0.03469000           0.86468000           0.14781000         
C                     0.99810000          -0.29821000           0.23370000         
C                    -1.39576000           0.44485000          -0.08890000         
O                     2.10943000          -0.25656000          -0.21564000         
O                    -1.77022000          -0.69526000          -0.06370000         
H                     0.61334000          -1.19863000           0.75440000         
H                    -2.10891000           1.27674000          -0.28437000         
H                     0.37081000           1.56966000          -0.62450000         
H                     0.06305000           1.41675000           1.10384000         
9

C                     0.00096000           0.74364000           0.05844000         
C                     0.89079000          -0.25950000          -0.06260000         
C                    -1.43248000           0.42613000           0.05752000         
O                     2.21804000          -0.15327000          -0.05626000         
O                    -1.88958000          -0.69165000           0.00609000         
H                     0.54214000          -1.28787000          -0.17734000         
H                    -2.10770000           1.30833000           0.11721000         
H                     2.47583000           0.76693000           0.06041000         
H                     0.31533000           1.78370000           0.16056000         
9
DE: 58.21531133397998  DG: 56.22296867148073 DH: 1.4103728489483771 (kcal/mol)
C                     0.04575600           0.70709700           0.13009300         
C                     0.96586800          -0.37613500           0.33555700         
C                    -1.37560800           0.41934900          -0.03605700         
O                     2.03923100          -0.15965000          -0.27603700         
O                    -1.81550200          -0.70493900          -0.13707100         
H                     0.82537200          -1.30262800           0.90675700         
H                    -2.04930500           1.30257800          -0.08941100         
H                     1.27212600           0.77953300          -0.71906800         
H                     0.34587800           1.63536600           0.62902300         
