16

C                     0.38933000           1.33474000          -0.85403000         
C                    -2.34227000           0.09520000          -0.02602000         
C                     0.12183000          -0.11073000          -0.58937000         
C                    -1.05370000          -0.65286000          -0.23154000         
O                     1.20819000          -0.93051000          -0.75109000         
H                     1.94618000          -0.52812000          -0.25966000         
H                    -1.05973000          -1.73706000          -0.10922000         
H                    -0.47960000           1.96499000          -0.66784000         
H                     1.22225000           1.67482000          -0.22163000         
H                     0.69520000           1.46352000          -1.90124000         
H                    -2.92482000           0.18137000          -0.95342000         
H                    -2.97385000          -0.43132000           0.70053000         
H                    -2.17819000           1.10771000           0.35556000         
O                     1.23472000           0.15787000           1.97871000         
H                     0.82267000           0.99717000           2.19773000         
H                     0.50809000          -0.36471000           1.62897000         
16

C                     0.61299000           2.35405000          -0.98227000         
C                    -2.16892000          -0.03419000           0.35851000         
C                     0.26048000          -0.64192000           0.12612000         
C                    -0.99523000          -0.67487000          -0.32302000         
O                     1.30349000          -1.12160000          -0.57580000         
H                     2.07354000          -1.12090000           0.00171000         
H                    -1.14240000          -1.17018000          -1.28219000         
H                    -0.44600000           2.27067000          -1.24947000         
H                     1.00697000           3.30966000          -1.34692000         
H                     1.16469000           1.52842000          -1.44123000         
H                    -2.73595000           0.60281000          -0.33621000         
H                    -2.87276000          -0.77782000           0.76406000         
H                    -1.86614000           0.61664000           1.19532000         
O                     0.67826000          -0.11470000           1.30151000         
H                     0.72359000           2.30114000           0.10681000         
H                    -0.08265000           0.11734000           1.84202000         
16
DE: 96.93264748399899  DG: 103.80826907547522 DH: 3.3941204588910048 (kcal/mol)
C                     0.51814400           1.57462500          -0.66381900         
C                    -2.18519800           0.05400600           0.15839000         
C                     0.27722200          -0.39735500          -0.20404800         
C                    -1.00562200          -0.75169100          -0.30015100         
O                     1.33730400          -1.02526300          -0.67955400         
H                     1.92054200          -1.18029300           0.07777000         
H                    -1.15041700          -1.72527700          -0.76898500         
H                    -0.50192700           1.93748800          -0.80350400         
H                     1.14972600           2.38064600          -0.24959400         
H                     0.95722000           1.26066200          -1.61268800         
H                    -2.74197400           0.49375800          -0.68310400         
H                    -2.89032900          -0.57181400           0.72084000         
H                    -1.87766800           0.87377800           0.81964900         
O                     0.98005000           0.11120000           1.42932100         
H                     0.72024500           0.94858300           0.50740000         
H                     0.24847500           0.01747300           2.05185000         
