16

C                     0.74054000           1.34724000           0.36378000         
C                    -1.15886000          -1.04722000           1.14741000         
C                     0.92528000          -0.10099000           0.02687000         
C                     0.09723000          -1.11615000           0.32599000         
O                     2.09916000          -0.29570000          -0.63423000         
H                     2.22002000          -1.23643000          -0.79185000         
H                     0.40572000          -2.11346000           0.00206000         
H                    -0.30451000           1.59376000           0.56523000         
H                     1.36203000           1.61336000           1.22957000         
H                     1.08536000           1.94642000          -0.48674000         
H                    -1.97976000          -1.59037000           0.65668000         
H                    -1.01307000          -1.52609000           2.12760000         
H                    -1.48741000          -0.01866000           1.31899000         
O                    -2.28506000           1.01439000          -0.94447000         
H                    -2.99366000           0.42419000          -0.67662000         
H                    -1.53833000           0.42120000          -1.08472000         
16

C                     0.92873000           1.44918000           0.28188000         
C                    -1.42269000          -0.46404000           0.57597000         
C                     0.98571000          -0.01956000           0.00657000         
C                    -0.04050000          -0.87596000           0.14347000         
O                     2.22204000          -0.40193000          -0.39521000         
H                     2.23138000          -1.35521000          -0.52764000         
H                     0.13730000          -1.93639000          -0.07644000         
H                    -0.10407000           1.78656000           0.40271000         
H                     1.51485000           1.68066000           1.18163000         
H                     1.38932000           1.98614000          -0.55651000         
H                    -4.18096000          -1.74465000          -1.21141000         
H                    -2.03893000          -1.37006000           0.69039000         
H                    -1.40516000           0.03960000           1.55184000         
O                    -2.04814000           0.44875000          -0.31460000         
H                    -3.88163000          -1.08948000          -0.98493000         
H                    -1.79504000           0.19270000          -1.20512000         
16
DE: 101.98221643048417  DG: 107.54759818598683 DH: 24.09058317399618 (kcal/mol)
C                     0.97051900           1.39594000           0.32913800         
C                    -1.16181800          -0.60138600           0.83224100         
C                     1.06201000          -0.06196900           0.02448700         
C                     0.04908400          -0.96373600           0.21652500         
O                     2.23728500          -0.41743500          -0.49426900         
H                     2.24805100          -1.36563800          -0.67384300         
H                     0.14654400          -1.98096400          -0.16843300         
H                    -0.05088300           1.75805800           0.16020200         
H                     1.23970800           1.59012100           1.37649300         
H                     1.67631300           1.93664200          -0.30988600         
H                    -2.50609000          -1.60857000          -0.78890600         
H                    -1.88125400          -1.37676200           1.06940400         
H                    -1.23866800           0.33901400           1.36640300         
O                    -2.33929100           0.62969700          -0.55596600         
H                    -2.59957500          -0.38674100          -0.74770500         
H                    -1.73688000           0.78364800          -1.29620500         
