16

C                     1.06861000           1.26722000          -0.61689000         
C                    -1.60506000          -0.37612000          -1.04857000         
C                     0.82693000          -0.17549000          -0.29624000         
C                    -0.30447000          -0.86980000          -0.46785000         
O                     1.95740000          -0.73376000           0.22355000         
H                     1.78547000          -1.65702000           0.43385000         
H                    -0.27416000          -1.93020000          -0.18667000         
H                     1.44315000           1.78475000           0.27517000         
H                     1.84899000           1.33432000          -1.38660000         
H                     0.16908000           1.76737000          -0.98259000         
H                    -2.43004000          -0.61384000          -0.37440000         
H                    -1.61441000           0.70584000          -1.20440000         
H                    -1.80610000          -0.84516000          -2.02210000         
O                    -1.71432000           0.70170000           1.77714000         
H                    -1.86185000           1.51319000           1.26962000         
H                    -0.95154000           0.28558000           1.35409000         
16

C                     1.10246000           1.32909000          -0.41940000         
C                    -2.37134000          -0.32768000          -1.71917000         
C                     0.90179000          -0.02749000           0.17462000         
C                    -0.12732000          -0.41212000           0.94111000         
O                     1.92426000          -0.87540000          -0.15497000         
H                     1.75766000          -1.73950000           0.23172000         
H                    -0.17460000          -1.42158000           1.35339000         
H                     2.09541000           1.69677000          -0.14319000         
H                     1.05774000           1.27434000          -1.51690000         
H                     0.36207000           2.05473000          -0.07861000         
H                    -3.25651000          -0.29637000          -2.36015000         
H                    -1.70852000           0.51433000          -1.97373000         
H                    -1.83252000          -1.26996000          -1.87843000         
O                    -1.20183000           0.34608000           1.31411000         
H                    -2.66798000          -0.26078000          -0.66012000         
H                    -1.21146000           1.15950000           0.80852000         
16
DE: 110.74915165500072  DG: 117.28717313547324 DH: 11.586281070745692 (kcal/mol)
C                     1.14118500           1.31376800          -0.45070000         
C                    -1.86960300          -0.33268100          -1.10479400         
C                     0.86839600          -0.07170200           0.04291700         
C                    -0.34800000          -0.57827600           0.31302700         
O                     2.00528800          -0.86314600           0.01851200         
H                     1.82881400          -1.68395000           0.48519500         
H                    -0.49202600          -1.60225900           0.64401600         
H                     1.77612100           1.87889800           0.24641200         
H                     1.68209800           1.25682900          -1.40689700         
H                     0.20931300           1.86857800          -0.61709500         
H                    -2.92842900          -0.00725300          -1.10277100         
H                    -1.32344300           0.24958200          -1.85399500         
H                    -1.85893600          -1.39000800          -1.38518700         
O                    -1.35875400           0.35268800           1.28633800         
H                    -1.90522900           0.31600700           0.36903700         
H                    -0.91241800           1.21058900           1.37978600         
