13

C                     0.72223000          -0.03954000          -0.58985000         
C                     1.68816000          -0.29145000           0.54993000         
C                    -0.73574000           1.55563000           0.34593000         
C                    -0.38879000          -1.07762000          -0.65418000         
O                     0.18699000           1.29500000          -0.58010000         
O                    -1.20246000           0.74674000           1.09245000         
O                    -0.24405000          -2.19530000          -0.25610000         
H                     1.24372000          -0.09922000          -1.55441000         
H                    -1.00917000           2.62388000           0.31834000         
H                    -1.32147000          -0.74400000          -1.16183000         
H                     1.16376000          -0.23096000           1.50980000         
H                     2.09789000          -1.30281000           0.44640000         
H                     2.50411000           0.43960000           0.52037000         
13

C                     0.79701000           0.03494000          -0.50553000         
C                     2.03861000          -0.22843000           0.32653000         
C                    -0.93748000           1.41750000           0.12216000         
C                    -0.38249000          -0.78101000          -0.00292000         
O                     0.35554000           1.37382000          -0.41964000         
O                    -1.36676000           0.08241000           0.32479000         
O                    -0.46839000          -1.96018000           0.10438000         
H                     0.97562000          -0.23259000          -1.55717000         
H                    -0.93838000           1.93267000           1.09443000         
H                    -1.62783000           1.91358000          -0.56778000         
H                     1.86232000           0.04927000           1.37461000         
H                     2.28303000          -1.29704000           0.27533000         
H                     2.88128000           0.35755000          -0.05903000         
13
DE: 69.98425200651486  DG: 69.79160659000188 DH: 3.098948374760996 (kcal/mol)
C                    -0.82335700           0.05076300          -0.54503200         
C                    -1.85169500          -0.18508600           0.54338000         
C                     0.99839000           1.10562300          -0.00455500         
C                     0.43594300          -0.80303200          -0.29053300         
O                    -0.24763200           1.33916100          -0.54097200         
O                     1.01788400           0.31594700           1.00238300         
O                     0.72758400          -1.93053300          -0.20550900         
H                    -1.22595600          -0.15129400          -1.54590500         
H                     1.68749600           1.95147400          -0.11585600         
H                     1.30963100           0.11627700          -1.01211600         
H                    -2.69259900           0.50185200           0.39822700         
H                    -2.21767300          -1.21703000           0.48536900         
H                    -1.39927800          -0.00748200           1.52349700         
