13

C                     0.80333000          -0.16453000          -0.26963000         
C                     2.27039000          -0.27135000           0.11683000         
C                    -1.21329000          -0.99862000           0.63023000         
C                     0.43037000           1.25409000          -0.67734000         
O                     0.03830000          -0.57902000           0.85240000         
O                    -1.74446000          -1.04802000          -0.43643000         
O                    -0.51231000           1.84724000          -0.24429000         
H                     0.56827000          -0.80626000          -1.13446000         
H                    -1.65029000          -1.35363000           1.58155000         
H                     1.11017000           1.69955000          -1.44555000         
H                     2.57422000          -1.32122000           0.18590000         
H                     2.90486000           0.22867000          -0.62269000         
H                     2.42501000           0.20640000           1.09086000         
13

C                     1.09104000          -0.41710000          -0.16449000         
C                     2.56851000          -0.37521000          -0.43149000         
C                    -1.91958000           0.09532000          -0.26409000         
C                     0.34807000           0.80392000           0.18267000         
O                     0.68924000          -0.08957000           1.18175000         
O                    -1.69881000          -1.04710000          -0.51860000         
O                    -1.01651000           1.05838000          -0.02334000         
H                     0.52646000          -1.24441000          -0.58963000         
H                    -2.93072000           0.54415000          -0.21080000         
H                     0.84828000           1.77583000           0.20558000         
H                     3.07453000          -1.16239000           0.13573000         
H                     2.77532000          -0.53117000          -1.49496000         
H                     2.99965000           0.58739000          -0.13460000         
13
DE: 61.87306420951919  DG: 62.80930838347394 DH: 19.922801147227524 (kcal/mol)
C                     0.93127000          -0.19256100          -0.35570100         
C                     2.39344800          -0.42264200          -0.11651900         
C                    -1.46124600          -0.26927700           0.32801100         
C                     0.28847700           1.08464000          -0.02102500         
O                     0.14474700          -0.33115700           0.85946100         
O                    -1.79477200          -1.09982100          -0.42915500         
O                    -0.92544400           1.30658600          -0.35277900         
H                     0.48186400          -0.74612300          -1.18608000         
H                    -1.94416700           0.15500200           1.21401400         
H                     0.87380300           1.84600100           0.51482100         
H                     2.56261900          -1.47468200           0.14049900         
H                     2.96387700          -0.18608500          -1.02276100         
H                     2.75406900           0.20006400           0.71069400         
