13

C                    -0.55134000           0.50279000           0.45068000         
C                    -1.73371000           1.23069000          -0.15397000         
C                     1.79172000           0.42269000          -0.16045000         
C                    -0.70106000          -1.02578000           0.29945000         
O                     0.62161000           1.05036000          -0.19705000         
O                     1.99353000          -0.66436000           0.29913000         
O                    -1.46356000          -1.50720000          -0.48994000         
H                    -0.44320000           0.71323000           1.52484000         
H                     2.56235000           1.05673000          -0.63393000         
H                    -0.11021000          -1.64913000           0.99508000         
H                    -1.51219000           2.29822000          -0.20827000         
H                    -1.92067000           0.84150000          -1.16458000         
H                    -2.63097000           1.07451000           0.45464000         
13

C                    -1.55911000           0.48425000           0.73257000         
C                    -2.39888000           1.11180000          -0.08824000         
C                     2.08562000           0.20330000          -0.46149000         
C                    -1.01981000          -0.86044000           0.37467000         
O                     1.22256000           1.12659000          -0.01623000         
O                     2.52499000          -0.64697000           0.24460000         
O                    -1.34146000          -1.45869000          -0.62157000         
H                    -1.20868000           0.93410000           1.66318000         
H                     2.34368000           0.31236000          -1.53275000         
H                    -0.27358000          -1.28501000           1.07818000         
H                     0.90682000           1.68261000          -0.73728000         
H                    -2.71045000           0.61961000          -1.01111000         
H                    -2.80716000           2.09540000           0.14210000         
13
DE: 73.0245355340079  DG: 67.79800890850578 DH: 17.584369024856603 (kcal/mol)
C                    -1.12011100           0.40791100           0.70065200         
C                    -1.71844100           1.24404200          -0.23403900         
C                     1.92274200           0.36118100          -0.32291800         
C                    -0.84040700          -1.03742200           0.36276600         
O                     0.76652300           0.91444300          -0.03712700         
O                     2.35262800          -0.63342900           0.20105200         
O                    -1.40570200          -1.57394800          -0.54804800         
H                    -0.87189500           0.74618400           1.70646800         
H                     2.48120100           0.91141700          -1.11169500         
H                    -0.06957000          -1.53382300           0.98009200         
H                    -0.44585700           1.39506100          -0.50884500         
H                    -2.14747300           0.76389200          -1.11554000         
H                    -2.11669600           2.20646800           0.08373600         
