13

C                     0.49919000          -0.35270000          -0.00577000         
C                     1.75556000          -0.75496000           0.73419000         
C                    -1.81696000          -0.46380000           0.50902000         
C                     0.62642000           0.99673000          -0.69923000         
O                    -0.57748000          -0.23526000           0.94156000         
O                    -2.11482000          -0.72669000          -0.61845000         
O                     1.67062000           1.55485000          -0.87009000         
H                     0.21171000          -1.08151000          -0.77356000         
H                    -2.52691000          -0.39257000           1.35399000         
H                    -0.35347000           1.44521000          -1.02902000         
H                     1.67682000          -1.78880000           1.09566000         
H                     2.61204000          -0.66636000           0.05582000         
H                     1.92332000          -0.08255000           1.56981000         
13

C                     0.89878000          -0.89061000           0.17383000         
C                     2.39462000          -0.99819000          -0.09592000         
C                    -1.94583000           0.01439000           0.16380000         
C                     0.42915000           0.53571000           0.09189000         
O                    -0.89132000           0.78312000           0.50529000         
O                    -1.93070000          -0.91041000          -0.58567000         
O                     1.08587000           1.47278000          -0.21986000         
H                     0.61755000          -1.27781000           1.16705000         
H                    -2.84244000           0.39670000           0.67889000         
H                     0.31019000          -1.46588000          -0.55110000         
H                     2.70481000          -2.04890000          -0.08613000         
H                     2.63722000          -0.57082000          -1.07215000         
H                     2.97167000          -0.44748000           0.65619000         
13
DE: 80.6864265289965  DG: 78.04586655299302 DH: -12.80927342256214 (kcal/mol)
C                     0.85715600          -0.79336900          -0.05847400         
C                     2.24452000          -0.92391200           0.29465900         
C                    -1.96123200          -0.00766800           0.33206700         
C                     0.37134900           0.57109300          -0.37778400         
O                    -0.87537100           0.63262900           0.67245300         
O                    -2.04208300          -0.83513600          -0.54707400         
O                     1.15842200           1.52307800          -0.30481300         
H                     0.18480800          -1.63410900          -0.25520300         
H                    -2.82569900           0.29191100           0.95816900         
H                    -0.20053000           0.37222100          -1.33982400         
H                     2.52814200          -1.87806000           0.74480600         
H                     2.79667400          -0.79221600          -0.65929000         
H                     2.51810000          -0.00116800           0.84399900         
