13

C                    -0.42411000          -0.46396000           0.67548000         
C                    -0.81442000          -1.56958000          -0.28452000         
C                     1.76194000           0.05182000          -0.03816000         
C                    -0.94537000           0.90044000           0.24869000         
O                     0.98834000          -0.40762000           0.94537000         
O                     1.37006000           0.45612000          -1.09131000         
O                    -1.96938000           1.03981000          -0.36718000         
H                    -0.86408000          -0.65572000           1.66632000         
H                     2.82703000          -0.00632000           0.26041000         
H                    -0.34482000           1.75890000           0.62111000         
H                    -0.49426000          -2.54318000           0.09183000         
H                    -1.90542000          -1.55735000          -0.38662000         
H                    -0.36850000          -1.39403000          -1.27127000         
13

C                    -0.38351000          -0.48357000           0.34844000         
C                    -0.97665000          -1.42786000          -0.68169000         
C                     1.06344000          -0.14504000           0.05406000         
C                    -1.12979000           0.84586000           0.40152000         
O                     1.73421000           0.18050000           1.17098000         
O                     1.55470000          -0.11424000          -1.03759000         
O                    -2.10093000           1.08195000          -0.25989000         
H                    -0.41522000          -0.88832000           1.37159000         
H                     2.62625000           0.44641000           0.90031000         
H                    -0.70844000           1.59513000           1.10850000         
H                    -0.53433000          -2.42341000          -0.59623000         
H                    -2.05979000          -1.49451000          -0.54675000         
H                    -0.77743000          -1.04361000          -1.68628000         
13
DE: 131.9194396565199  DG: 123.66141463650257 DH: -11.25406309751435 (kcal/mol)
C                    -0.74594200          -0.59465300           0.67950000         
C                    -0.95019000          -1.56697300          -0.43458000         
C                     1.50590800           0.15480900          -0.12532600         
C                    -1.24580100           0.76502500           0.53409100         
O                     1.47140400          -0.00065600           1.05409000         
O                     1.50666600           0.28131000          -1.26167300         
O                    -1.66015400           1.22899200          -0.51185100         
H                    -0.64093600          -0.96869100           1.69753500         
H                     3.00646300           0.42576000           0.83268600         
H                    -1.20942100           1.38634800           1.45646800         
H                    -0.19442200          -2.36308700          -0.43934400         
H                    -1.93011000          -2.06094900          -0.31602300         
H                    -0.95875400          -1.04579500          -1.39795500         
