12

C                    -1.18563000          -0.80284000           0.14694000         
C                     0.23017000          -1.12772000          -0.29706000         
C                     1.30118000          -0.31067000           0.39083000         
O                    -1.64058000           0.44410000          -0.33326000         
O                    -0.76936000           1.43066000           0.17672000         
O                     2.31291000           0.04731000          -0.14357000         
H                    -1.30587000           1.83412000           0.87223000         
H                    -1.89824000          -1.52457000          -0.27213000         
H                    -1.26654000          -0.83700000           1.24737000         
H                     1.11523000          -0.09702000           1.47132000         
H                     0.34425000          -1.01447000          -1.38164000         
H                     0.43447000          -2.17981000          -0.04030000         
12

C                    -2.42978000          -0.92278000           0.34359000         
C                     0.74242000          -0.20700000          -0.76847000         
C                     1.73561000          -0.23368000           0.37560000         
O                    -2.74000000           0.22545000           0.45157000         
O                    -0.09139000           0.91101000          -0.57721000         
O                     2.88458000           0.07652000           0.23952000         
H                     0.43182000           1.70717000          -0.71289000         
H                    -2.65188000          -1.51602000          -0.57177000         
H                    -1.89751000          -1.47348000           1.15107000         
H                     1.29823000          -0.45128000           1.37867000         
H                     1.29580000          -0.18191000          -1.71739000         
H                     0.10488000          -1.10079000          -0.74842000         
12
DE: 98.96326822597294  DG: 93.97645022950769 DH: -35.64603250478012 (kcal/mol)
C                    -1.63948600          -0.76979100           0.10815600         
C                     0.40450700          -0.80994900          -0.49988600         
C                     1.43001300          -0.24840600           0.42307100         
O                    -2.04876900           0.41304600           0.22416400         
O                    -0.39310800           1.18157800          -0.22327300         
O                     2.48039100           0.18849700           0.03375400         
H                    -0.07906100           2.10619200          -0.32712000         
H                    -1.91415800          -1.34035300          -0.79437000         
H                    -1.41114700          -1.34126200           1.02380000         
H                     1.17661200          -0.29780900           1.50366600         
H                     0.55506400          -0.55538900          -1.54672500         
H                     0.19437400          -1.86746100          -0.32445700         
