13

C                    -0.02788000           1.08307000           0.18400000         
C                    -1.20312000           0.25994000          -0.33003000         
C                    -1.53733000          -0.93630000           0.55885000         
C                     1.30770000           0.40104000           0.02096000         
O                     1.46158000          -0.69894000          -0.44246000         
H                     2.18832000           0.99864000           0.35681000         
H                    -0.13849000           1.33741000           1.25010000         
H                     0.05445000           2.04601000          -0.33747000         
H                    -2.08181000           0.90996000          -0.41713000         
H                    -0.96251000          -0.09219000          -1.34061000         
H                    -1.84122000          -0.60593000           1.56101000         
H                    -2.35746000          -1.52269000           0.12672000         
H                    -0.66602000          -1.59618000           0.65793000         
13

C                    -0.06754000           1.30623000           0.07081000         
C                    -1.19940000           0.35113000          -0.36867000         
C                    -0.64459000          -1.02341000           0.02166000         
C                     1.10080000           0.34814000           0.39954000         
O                     0.75057000          -0.90663000          -0.14280000         
H                     2.05615000           0.65689000          -0.03817000         
H                    -0.34802000           1.90110000           0.94746000         
H                     0.19718000           2.00225000          -0.73235000         
H                    -2.15914000           0.57069000           0.11348000         
H                    -1.34267000           0.39875000          -1.45344000         
H                     1.23016000           0.26400000           1.49383000         
H                    -0.88886000          -1.25387000           1.07489000         
H                    -1.00379000          -1.84459000          -0.60803000         
13
DE: 115.974423261506  DG: 113.77500246399451 DH: 6.079349904397707 (kcal/mol)
C                    -0.03099400           1.21140800           0.04655000         
C                    -1.17478500           0.27296800          -0.42268100         
C                    -1.09939300          -0.96323200           0.34756100         
C                     1.10283800           0.18012700           0.37489000         
O                     1.27156100          -0.79155500          -0.46949400         
H                     2.01674700           0.76322200           0.63892800         
H                    -0.31258300           1.77444600           0.94707300         
H                     0.24573600           1.92063900          -0.74664000         
H                    -2.13769100           0.78178000          -0.25513400         
H                    -0.99912100           0.04835600          -1.48040700         
H                     0.55213900          -0.25666900           1.34434900         
H                    -1.52019500          -1.01108000           1.35401500         
H                    -0.80351400          -1.89588000          -0.12415100         
