13

C                    -0.08272000          -0.69285000          -0.31574000         
C                     1.26861000          -0.57464000           0.39152000         
C                     2.13697000           0.55682000          -0.15676000         
C                    -1.06209000           0.38619000           0.07795000         
O                    -2.25499000           0.26577000           0.01721000         
H                    -0.61275000           1.33801000           0.44558000         
H                    -0.57549000          -1.65420000          -0.12669000         
H                     0.05735000          -0.62282000          -1.40791000         
H                     1.10278000          -0.43300000           1.47020000         
H                     1.80665000          -1.52620000           0.28801000         
H                     1.64064000           1.53216000          -0.07122000         
H                     3.08862000           0.62165000           0.38359000         
H                     2.36181000           0.39001000          -1.21849000         
13

C                    -0.02672000          -0.38543000          -0.19502000         
C                     1.32279000          -0.37666000           0.46576000         
C                     2.36804000           0.40273000          -0.33629000         
C                    -1.12517000           0.13403000           0.35661000         
O                    -2.36210000           0.17075000          -0.18911000         
H                    -1.11317000           0.59371000           1.34768000         
H                    -2.33179000          -0.24103000          -1.05881000         
H                    -0.09630000          -0.83038000          -1.19381000         
H                     1.22754000           0.05475000           1.47229000         
H                     1.67373000          -1.41097000           0.60211000         
H                     2.06352000           1.45110000          -0.44964000         
H                     3.34773000           0.37788000           0.15816000         
H                     2.48613000          -0.02207000          -1.34220000         
13
DE: 68.4807392444942  DG: 65.05579239349144 DH: 9.189770554493304 (kcal/mol)
C                    -0.19693800          -0.41626200          -0.22035700         
C                     1.17531300          -0.52008700           0.40270400         
C                     2.20711700           0.42175000          -0.22347000         
C                    -1.21260900           0.46958000           0.20051400         
O                    -2.36842100           0.03266000          -0.08966200         
H                    -1.11490700           1.41395600           0.75701900         
H                    -1.56865300          -0.98094300          -0.30910800         
H                    -0.23739900          -0.53349700          -1.31276600         
H                     1.10038700          -0.32798300           1.48239800         
H                     1.52508500          -1.55743500           0.30925400         
H                     1.89761800           1.46966600          -0.11334300         
H                     3.19324200           0.30600700           0.24483200         
H                     2.31469000           0.21906500          -1.29733700         
