24

C                     0.04821826           0.74344985           0.92160947         
C                    -1.34350661           0.06409681           0.78866731         
C                     1.16693580          -0.22644114           0.52079065         
C                    -1.50979144          -0.56902451          -0.61291337         
C                     2.48197456           0.39734117           0.04162334         
C                    -0.33918699          -1.50218097          -0.92827291         
O                     0.08530939           1.91346544           0.12699734         
O                    -2.33858176           1.04022064           0.98448950         
O                     1.26049757          -1.29982436           1.24557286         
O                    -1.67626887           0.44048617          -1.57774593         
O                     2.36872097           1.12334603          -1.14733681         
O                    -0.13885227          -2.51651213          -0.15865612         
H                    -0.67693708           2.44632646           0.39820991         
H                    -2.71082579           1.24892325           0.11303563         
H                     0.58888866          -2.11917160           0.74090509         
H                    -0.87701906           0.99027294          -1.59439487         
H                     1.77474754           1.86983112          -0.98880705         
H                     0.19696487           1.00554140           1.97927796         
H                    -1.44109668          -0.70251466           1.56331600         
H                     0.65351178          -0.65463762          -0.65570850         
H                    -2.43683861          -1.15370413          -0.62890927         
H                     3.19319975          -0.41148587          -0.14193428         
H                     2.86565164           1.02204512           0.86131083         
H                    -0.17255071          -1.64973287          -2.00303345         
