24

C                     0.18912504           1.22072374          -0.18164335         
C                    -1.02199362           1.07473010           0.83319069         
C                     1.14756311           0.05375435           0.11001895         
C                    -1.43850000          -0.32040000           1.04880000         
C                     2.39336476           0.08638698          -0.81426150         
C                    -0.65326989          -1.40842577           1.66706566         
O                    -0.30146956           1.27434744          -1.47400033         
O                    -2.08150482           1.88274646           0.42380593         
O                     0.49970000          -1.15070000           0.01500000         
O                    -1.61410000          -1.10710000          -1.07400000         
O                     3.45608169          -0.58357809          -0.20824613         
O                    -1.04993098          -2.55100446           1.70061530         
H                    -0.73818145           0.43085008          -1.69399796         
H                    -2.07955347           1.91021471          -0.54723600         
H                    -0.55850000          -1.23790000          -0.74680000         
H                    -2.03376267          -1.95855183          -0.93369397         
H                     3.18071364          -1.48645972          -0.00437311         
H                     0.68325493           2.18148720          -0.00854493         
H                    -0.66241709           1.46336265           1.79672400         
H                     1.53714648           0.19726538           1.13441178         
H                    -2.50576043          -0.49815183           0.95220825         
H                     2.13513545          -0.35293326          -1.78427605         
H                     2.71767889           1.11863575          -0.95306272         
H                     0.17636867          -1.05901212           2.30701918         
