12

C                    -1.14421060          -0.84297903           0.44176681         
C                     0.12587525          -1.24468992          -0.33618949         
C                     1.00886261          -0.04487330          -0.25296322         
O                    -1.52124304           0.41518497          -0.04192396         
O                    -0.36346584           1.20663926          -0.05982541         
O                     1.97039208           0.23315289           0.36027282         
H                     0.23141061           1.18963672          -1.22559060         
H                    -1.98886410          -1.50328295           0.24573561         
H                    -0.92870077          -0.80799380           1.51744921         
H                     0.92768456           0.66790545          -1.66323777         
H                    -0.13039893          -1.50058381          -1.36208924         
H                     0.64161897          -2.07837933           0.14030946         
