12

C                     1.13234204           0.69064465           0.50519751         
C                     0.01190751           1.31649878          -0.34634803         
C                    -1.02982172           0.22568709          -0.48005182         
O                     1.38456530          -0.58992827          -0.03096922         
O                     0.14949694          -1.16743365          -0.28253468         
O                    -1.66115638          -0.21535030           0.55553314         
H                    -0.70347257          -1.02659500           0.61440223         
H                     2.07705211           1.22984400           0.44855952         
H                     0.79997602           0.61262425           1.54973972         
H                    -1.48957110           0.10767775          -1.46562703         
H                     0.38655266           1.60712889          -1.32645457         
H                    -0.41666541           2.17582309           0.16513134         
