31
comment line
C                    50.446878            14.830390            8.502746            
H                    49.488073            14.329185            8.366531            
C                    51.107113            14.929563            9.770178            
H                    50.721503            14.350853            10.588230           
C                    52.260650            15.682081            9.871047            
H                    52.848260            15.682096            10.824371           
C                    52.791688            16.355924            8.725560            
H                    53.731227            16.864099            8.774662            
C                    51.032794            15.345496            7.329173            
C                    52.148866            16.197780            7.505382            
C                    50.219607            15.294315            6.023011            
H                    52.559293            16.703590            6.609589            
C                    49.814113            14.109718            5.451399            
C                    49.703049            16.525444            5.558622            
C                    48.830615            14.080315            4.448140            
H                    49.993003            13.131857            5.841653            
C                    48.786916            16.547180            4.471741            
H                    49.964162            17.447228            6.045279            
H                    48.534493            13.088500            4.087247            
C                    48.288040            15.332563            3.955629            
H                    48.402295            17.493223            4.263151            
C                    47.219187            15.341054            2.813911            
C                    45.846031            14.897473            3.292987            
H                    47.114514            16.294300            2.312236            
H                    47.499670            14.685938            1.954641            
H                    45.799745            14.041749            4.010353            
H                    45.280316            14.611174            2.407323            
N                    45.248103            15.930040            4.249959            
H                    45.154235            16.925177            3.952118            
H                    44.324881            15.578777            4.456454            
H                    45.785952            15.897447            5.167679            
