15

C                    -1.52027000           1.39358000          -0.38469000         
C                     1.86714000          -0.52611000          -0.05204000         
C                    -2.32999000           0.16867000          -0.11244000         
C                    -2.11357000          -0.66730000           0.90995000         
O                     1.12104000          -1.31858000          -0.95677000         
H                     0.19864000          -1.00982000          -0.91553000         
H                    -0.69549000           1.50842000           0.32559000         
H                    -1.09670000           1.34215000          -1.39240000         
H                    -3.15030000          -0.03620000          -0.79801000         
H                    -2.74497000          -1.53931000           1.05643000         
H                    -1.31666000          -0.50341000           1.62879000         
H                    -2.15419000           2.28296000          -0.32163000         
H                     1.88805000           0.50820000          -0.40381000         
H                     1.41199000          -0.57530000           0.94022000         
H                     2.88806000          -0.91176000          -0.00037000         
15

C                    -1.33136000           1.45233000          -0.43615000         
C                     1.32228000          -0.62339000           0.29863000         
C                    -1.53382000          -0.04084000          -0.65572000         
C                    -1.03985000          -0.88125000           0.52219000         
O                     0.21456000          -1.50967000           0.25847000         
H                    -1.04194000          -0.34712000          -1.58565000         
H                    -0.28061000           1.70217000          -0.26818000         
H                    -1.67518000           2.01122000          -1.31225000         
H                    -2.61025000          -0.20810000          -0.78237000         
H                    -1.74989000          -1.70025000           0.68060000         
H                    -0.99530000          -0.31490000           1.46006000         
H                    -1.90595000           1.79823000           0.42947000         
H                     1.30667000           0.05175000          -0.56066000         
H                     1.33590000          -0.05476000           1.23333000         
H                     2.23733000          -1.21921000           0.24165000         
15
DE: 60.17536750000495  DG: 50.698862499996764
C                     2.34173700          -0.38547000          -0.10829200         
C                    -2.28762900          -0.22085000           0.21446900         
C                     1.05922900           0.10371000           0.53439900         
C                     0.15501300           0.92794000          -0.18532600         
O                    -1.07933000          -0.34930600          -0.49771000         
H                    -0.12051300          -0.70358900           0.15554700         
H                     2.19834000          -0.55922100          -1.18373000         
H                     3.17365300           0.32697800           0.00497000         
H                     1.08396200           0.25389400           1.61646500         
H                    -0.47589000           1.64696700           0.34313000         
H                     0.35596800           1.18409000          -1.22709300         
H                     2.66890600          -1.33673300           0.33071800         
H                    -2.83832300          -1.16970900           0.18307200         
H                    -2.10644000           0.04497700           1.27122700         
H                    -2.91513000           0.55481600          -0.24413200         
