15

C                     1.35310000          -1.67804000           0.69437000         
C                    -1.76154000           0.16917000          -0.85293000         
C                     2.17348000          -0.56479000           1.25793000         
C                     2.29055000           0.64635000           0.70021000         
O                    -1.41020000          -0.66868000          -1.83826000         
O                    -1.34312000           1.41168000          -1.12976000         
O                    -2.37111000          -0.15308000           0.14599000         
H                    -1.15176000           1.55636000          -2.06944000         
H                     0.59970000          -1.99374000           1.42233000         
H                     0.83924000          -1.38538000          -0.22564000         
H                     2.69516000          -0.77040000           2.19030000         
H                     1.78134000           0.90443000          -0.22143000         
H                     2.89744000           1.41457000           1.17005000         
H                     1.99431000          -2.53513000           0.46736000         
H                    -0.69199000          -0.33182000          -2.39628000         
15

C                     1.22480000          -1.64018000           0.46836000         
C                    -0.90393000          -0.44919000          -0.04114000         
C                     0.50643000          -0.29487000           0.48895000         
C                     1.28238000           0.77793000          -0.27214000         
O                    -0.99556000          -0.78529000          -1.34614000         
O                     0.73382000           2.07269000          -0.06827000         
O                    -1.89976000          -0.27963000           0.64474000         
H                    -0.17289000           2.09817000          -0.42474000         
H                     0.64890000          -2.39645000           1.01302000         
H                     1.36855000          -2.00880000          -0.55282000         
H                     0.40651000           0.02948000           1.53337000         
H                     1.32168000           0.58617000          -1.34896000         
H                     2.31570000           0.81435000           0.08959000         
H                     2.21018000          -1.56182000           0.93936000         
H                    -0.15220000          -0.94096000          -1.80827000         
15
DE: 72.21458249998122  DG: 60.162817499983134
C                     1.96872600          -0.81030300          -0.04113500         
C                    -0.71019200          -0.29177500          -0.06520500         
C                     0.97681900           0.11574000           0.61930700         
C                     0.80340700           1.42615800           0.13642600         
O                    -0.70026300          -1.24899400          -0.81502900         
O                    -0.84384500           1.06211200          -0.74667100         
O                    -1.54141300          -0.21391900           1.01983100         
H                    -0.77266800           0.84883900          -1.69007600         
H                     2.96457900          -0.74054900           0.41591600         
H                     1.61481500          -1.84534900           0.03151500         
H                     0.82343900          -0.01435400           1.69068600         
H                     1.34169200           1.78027600          -0.74399500         
H                     0.38154900           2.20246600           0.77195300         
H                     2.05688700          -0.58135000          -1.11104200         
H                    -1.95868300          -1.08249400           1.07363800         
