13

C                     1.83068000           2.74247000          -0.17030000         
C                     2.99595000           0.53857000           0.06146000         
C                     2.21550000           1.37450000          -0.63328000         
H                     3.40583000           0.81477000           1.02865000         
H                     1.82787000           1.06504000          -1.60124000         
H                     2.28277000           2.99425000           0.79426000         
H                     2.15536000           3.48745000          -0.90319000         
S                     0.74396000           2.81242000          -0.06739000         
Cl                   -1.29947000          -0.32039000          -0.21270000         
Cl                   -0.69959000          -0.02685000           1.65018000         
O                    -3.15605000          -0.91209000           0.13688000         
H                    -1.56991000           1.09982000          -0.61350000         
H                     3.24949000          -0.44226000          -0.32825000         
13

C                     1.72011000           2.66658000           0.25982000         
C                     3.05281000           0.54147000           0.14412000         
C                     2.01082000           1.24303000           0.60697000         
H                     3.77640000           0.98778000          -0.52957000         
H                    -0.18900000          -0.02053000          -0.72602000         
H                     1.75945000           3.29609000           1.15481000         
H                     2.44563000           3.06323000          -0.45846000         
S                     0.72596000           2.76128000          -0.18851000         
Cl                   -1.23897000          -0.02059000          -1.51806000         
Cl                    0.88323000           0.49362000           1.68215000         
O                    -2.59021000          -0.73055000          -0.25876000         
H                    -1.59051000           1.43710000          -1.46300000         
H                     3.21678000          -0.49080000           0.43631000         
13
DE: 72.50009500000942  DG: 61.83133999997949
C                     1.01516000           2.23664000           0.10134000         
C                     2.70485000           0.37656000           0.16667000         
C                     1.32343000           0.76098000           0.00917000         
H                     0.84316000           0.27874000          -0.86291000         
H                     1.39682000           2.65047000           1.04235000         
H                     1.48677000           2.75643000          -0.74316000         
H                    -0.07089000           2.38451000           0.04177000         
S                    -1.72214000           0.01772000          -0.91459000         
Cl                    0.48039000          -0.14492000           1.38461000         
Cl                   -3.00709000          -0.96682000           0.45747000         
O                    -1.89944000           1.49294000          -0.80129000         
H                     2.97289000          -0.61858000           0.11290000         
H                     3.42510000           1.09667000           0.33312000         
