16

C                     1.24196000           2.59676000           0.77016000         
C                    -2.55666000           2.16660000          -0.00933000         
C                    -0.08276000           2.55644000           0.07868000         
C                    -1.22595000           2.17885000           0.67129000         
H                     1.16765000           2.30972000           1.82378000         
H                     1.65649000           3.60820000           0.72076000         
H                    -0.09136000           2.87739000          -0.96123000         
H                    -1.22050000           1.87432000           1.71634000         
H                    -3.24747000           2.83587000           0.51256000         
H                    -2.49073000           2.48981000          -1.05295000         
H                    -2.97662000           1.15662000           0.00970000         
S                     0.26294000          -1.04709000          -0.69358000         
Cl                   -1.52837000          -1.85250000          -0.45092000         
Cl                    1.01744000          -1.38917000           1.10415000         
O                     0.92933000          -2.15593000          -1.45347000         
H                     1.94111000           1.91441000           0.27755000         
16

C                     0.79750000           2.43046000           0.49250000         
C                    -2.20746000           2.19849000           0.24036000         
C                     0.12521000           1.27199000          -0.25621000         
C                    -1.29451000           0.96943000           0.27079000         
H                     0.84285000           2.23732000           1.57014000         
H                     0.26377000           3.37269000           0.33726000         
H                     0.06573000           1.55096000          -1.31564000         
H                    -1.26316000           0.60342000           1.30126000         
H                    -1.85159000           2.98219000           0.91541000         
H                    -2.27287000           2.62045000          -0.76894000         
H                    -3.22282000           1.94311000           0.56516000         
S                     1.30282000          -0.14650000          -0.20778000         
Cl                   -2.12301000          -0.29840000          -0.69250000         
Cl                    1.00273000          -0.96195000           1.56965000         
O                     0.80738000          -1.24272000          -1.09895000         
H                     1.82374000           2.58934000           0.14108000         
16
DE: 45.82507000001385  DG: 32.07591749998528
C                     2.06763200          -1.63590100          -1.03013200         
C                     1.84718100           1.89198200           0.54519300         
C                     1.92126400          -0.56344300           0.00216500         
C                     1.54575100           0.76183100          -0.40632100         
H                     1.25054800          -1.58538800          -1.76147800         
H                     2.09149200          -2.63429400          -0.58368100         
H                     2.53641300          -0.66520100           0.89787600         
H                     1.72432900           0.96172900          -1.46932500         
H                     1.46495800           1.64726200           1.54587900         
H                     2.92883100           2.07458300           0.61979400         
H                     1.35853100           2.81638800           0.22278300         
S                    -0.59234400           0.50806600          -0.50582600         
Cl                    0.10619400          -1.16371800           1.07016100         
Cl                   -2.69503700          -0.40084600          -0.17581500         
O                    -0.89648100           1.82370000           0.03971600         
H                     3.01361600          -1.46295800          -1.56566800         
