16

C                    -2.93184000          -0.67741000           0.33369000         
C                    -0.25037000          -0.26077000           3.13282000         
C                    -2.11476000          -0.14345000           1.46519000         
C                    -1.08753000          -0.80321000           2.02177000         
H                    -2.94926000           0.04700000          -0.48635000         
H                    -2.53443000          -1.62003000          -0.05561000         
H                    -2.38650000           0.84472000           1.82885000         
H                    -0.81983000          -1.79131000           1.65399000         
H                     0.80291000          -0.25669000           2.83564000         
H                    -0.53076000           0.76279000           3.40063000         
H                    -0.35492000          -0.89025000           4.02146000         
S                     1.32090000           0.30094000          -1.66116000         
Cl                    1.68851000          -1.30408000          -0.56362000         
Cl                    0.96418000           1.61066000          -0.22154000         
O                    -0.08741000          -0.00140000          -2.07967000         
H                    -3.96089000          -0.84772000           0.66461000         
16

C                    -2.85470000          -0.59616000           0.28654000         
C                    -0.89464000          -0.44214000           3.25767000         
C                    -1.48467000          -0.20039000           0.82225000         
C                    -1.14742000          -0.98534000           2.05982000         
H                    -3.08809000          -0.02302000          -0.61763000         
H                    -2.87956000          -1.65389000          -0.00090000         
H                    -1.48222000           0.87872000           1.01884000         
H                    -1.09995000          -2.06734000           1.94899000         
H                     1.36393000           0.16655000           1.22218000         
H                    -0.92633000           0.63117000           3.42024000         
H                    -0.65076000          -1.06990000           4.11012000         
S                     0.96090000           0.15617000          -0.06187000         
Cl                    2.22754000          -0.95260000          -1.20168000         
Cl                    0.88726000           2.04359000          -0.81561000         
O                    -0.52010000          -0.49958000          -0.18265000         
H                    -3.64320000          -0.41593000           1.02440000         
16
DE: 38.89307750003752  DG: 26.760365000065462
C                     2.91817500          -0.28843900          -0.92963200         
C                     0.43751400          -0.09180900           1.97977500         
C                     1.85116600          -0.58329800           0.06407200         
C                     1.53725900           0.24301200           1.13062200         
H                     2.56318900          -0.55472300          -1.93236300         
H                     3.20084300           0.76924500          -0.91493700         
H                     1.44982800          -1.59976100           0.08359100         
H                     1.97616100           1.24091900           1.18071700         
H                    -0.51442800           0.16552300           1.29960800         
H                     0.25050800          -1.15972200           2.13680200         
H                     0.28426700           0.54297000           2.85628000         
S                    -1.09981600           0.12866700          -0.43337300         
Cl                   -1.35502600          -2.14660100          -0.02067900         
Cl                   -0.86712500           2.38189400          -0.09116800         
O                     0.23705900          -0.02940900          -1.07875100         
H                     3.80210100          -0.90464100          -0.71334100         
