10

C                     2.01271000          -2.47743000          -0.76470000         
O                     1.42359000          -1.59259000           0.17343000         
H                     1.98325000          -1.62355000           0.97071000         
H                     2.11204000          -3.47028000          -0.31890000         
H                     1.37104000          -2.53856000          -1.64674000         
S                    -1.03945000           0.38398000           0.40543000         
Cl                   -2.53526000          -0.90090000           0.22935000         
Cl                   -1.72289000           1.83325000          -0.75802000         
O                    -1.37794000           0.97079000           1.74499000         
H                     2.99471000          -2.09651000          -1.05534000         
10

C                     1.47276000          -2.10465000          -0.88440000         
O                     1.23971000          -1.05861000           0.04258000         
H                     0.64622000           0.20917000           2.10876000         
H                     1.17265000          -3.05929000          -0.44362000         
H                     0.93078000          -1.93268000          -1.81893000         
S                    -0.26450000          -0.50513000           0.25944000         
Cl                   -1.63350000          -1.98669000           0.08332000         
Cl                   -0.62081000           1.00956000          -1.03263000         
O                    -0.26491000           0.06045000           1.76761000         
H                     2.54329000          -2.14393000          -1.10192000         
10
DE: 33.33154500002536  DG: 22.91190750000851
C                     2.78895100          -0.56624700          -0.61862000         
O                     1.89205900           0.05179200           0.27026600         
H                     1.21702300          -0.62560200           1.20905100         
H                     2.84107500          -0.00543100          -1.56282900         
H                     3.79049400          -0.56970300          -0.16899100         
S                    -0.03964900          -0.27330300          -0.17870800         
Cl                   -2.15908500          -0.73081500          -0.29688900         
Cl                   -0.34855000           1.75417500           0.05293000         
O                     0.12965400          -0.90379200           1.24018200         
H                     2.50818200          -1.61005300          -0.84246900         
