13

C                     2.58163000           0.26747000           1.37971000         
C                     1.44505000           0.84529000           1.78687000         
C                     0.80626000           2.00702000           1.09866000         
H                     2.99821000          -0.57994000           1.91458000         
H                     3.11480000           0.61942000           0.50166000         
H                     0.93630000           0.45656000           2.66561000         
H                     1.38011000           2.33902000           0.22771000         
S                    -1.03584000          -1.04706000          -1.70697000         
Cl                   -0.15110000          -2.04296000          -0.24392000         
Cl                   -2.46631000          -0.15255000          -0.67221000         
O                    -0.07857000           0.09937000          -1.84544000         
H                     0.72124000           2.84892000           1.79249000         
H                    -0.19890000           1.73653000           0.76323000         
13

C                     2.23869000           0.22448000           0.76931000         
C                     1.12979000           0.71773000           0.20772000         
C                     0.69956000           2.12483000           0.53756000         
H                     2.56892000          -0.78550000           0.54766000         
H                     2.82930000           0.82242000           1.45722000         
H                     0.11032000          -1.09115000           2.64075000         
H                     1.49679000           2.83968000           0.24319000         
S                     0.20020000          -0.34161000          -0.92899000         
Cl                    0.20532000          -2.44848000           2.43831000         
Cl                   -1.64629000          -0.07452000           0.04986000         
O                    -0.06404000           0.78951000          -1.93496000         
H                     0.51581000           2.21423000           1.62919000         
H                    -0.23156000           2.40549000           0.00527000         
13
DE: 47.02798750004433  DG: 36.58136750002427
C                     0.72526600           1.77362800           1.28467600         
C                    -0.10391700           1.31103800           0.12673600         
C                    -0.08461300           1.82275400          -1.13437000         
H                     0.28488600           2.68538800           1.70791300         
H                     0.72467900           1.00667100           2.07076800         
H                    -1.20261100           0.89094000           0.28827000         
H                     0.55781400           2.65529400          -1.43012300         
S                     0.03172200          -0.78585600          -0.04725900         
Cl                   -2.52468600          -0.36759900          -0.23021300         
Cl                    2.19721600          -0.67128500          -0.55117000         
O                     0.05983100          -1.22648100           1.32909300         
H                     1.75962400           1.97072200           0.98393400         
H                    -0.76403600           1.39303400          -1.87609500         
