13

C                    -2.38429000           1.61863000          -0.79990000         
C                    -2.54780000           0.64209000           0.10081000         
C                    -2.73634000          -0.79918000          -0.24485000         
H                    -2.26769000           2.65105000          -0.48329000         
H                    -2.38504000           1.41815000          -1.86707000         
H                    -2.55636000           0.89139000           1.16052000         
H                    -2.68117000          -0.97508000          -1.32377000         
S                     1.13684000           0.24185000           0.18213000         
Cl                    3.05492000           0.72641000           0.12124000         
Cl                    1.19929000          -1.44798000          -0.84707000         
O                     1.07113000          -0.32078000           1.57147000         
H                    -3.71238000          -1.14348000           0.10994000         
H                    -1.96331000          -1.40329000           0.23925000         
13

C                    -1.96877000           1.55710000          -0.70910000         
C                    -1.56391000           0.30379000          -0.45717000         
C                    -2.46831000          -0.88239000          -0.57643000         
H                    -1.32776000           2.42533000          -0.60376000         
H                    -2.98221000           1.75472000          -1.04769000         
H                    -0.33461000           0.70854000           2.17364000         
H                    -2.18771000          -1.49316000          -1.43988000         
S                     0.03956000           0.03596000           0.10592000         
Cl                    1.30546000           1.58918000          -0.19985000         
Cl                    0.82630000          -1.67256000          -0.64522000         
O                    -0.18310000          -0.13854000           1.69657000         
H                    -3.51481000          -0.58445000          -0.70139000         
H                    -2.41244000          -1.50373000           0.32346000         
13
DE: 63.97613499998613  DG: 54.867972500082374
C                    -2.58841800           0.89889000           0.36719300         
C                    -1.93051600          -0.23058100           0.07306200         
C                    -2.53117900          -1.38579500          -0.67966700         
H                    -2.08961900           1.72814300           0.87353400         
H                    -3.64814200           1.03246800           0.12365700         
H                    -1.01044000          -0.53686400           1.10677800         
H                    -2.35839100          -2.33536200          -0.15497900         
S                     0.30545200          -0.31757900          -0.14088100         
Cl                    0.52778900           1.75687000          -0.23917500         
Cl                    2.45927400          -0.69906000          -0.14981300         
O                     0.17796300          -0.71850000           1.35586200         
H                    -2.07037100          -1.47844000          -1.67390800         
H                    -3.61336000          -1.25854400          -0.81862500         
