10

C                     0.04304000           3.00397000           1.25711000         
O                     0.53407000           1.73597000           1.65905000         
H                     1.13164000           1.89797000           2.41163000         
H                    -0.51850000           3.45386000           2.07951000         
H                     0.88063000           3.64787000           0.97778000         
S                     0.81972000          -0.99504000           0.07239000         
Cl                    1.19750000          -0.10443000          -1.65516000         
Cl                   -0.43208000          -2.39478000          -0.55591000         
O                     2.06517000          -1.82423000           0.19662000         
H                    -0.61640000           2.87265000           0.39608000         
10

C                    -0.26725000           2.13418000           1.06338000         
O                    -0.21037000           0.94822000           0.31828000         
H                     3.07768000           1.67623000           0.30717000         
H                    -1.08546000           2.09546000           1.81594000         
H                     0.71496000           2.35298000           1.53688000         
S                     0.11505000          -0.32560000           1.43404000         
Cl                    2.97367000           1.86074000          -1.05204000         
Cl                   -1.09878000          -1.67113000           0.36928000         
O                     1.38020000          -0.74880000           0.67324000         
H                    -0.49500000           2.97183000           0.37281000         
10
DE: 25.257502500078886  DG: 12.652282499944363
C                     0.03898600           2.36786400           0.01502700         
O                    -0.07540600           1.23402500           0.86192000         
H                    -1.00694900           1.13192600           1.10860900         
H                    -0.69115200           2.31437900          -0.80433300         
H                    -0.11714600           3.28812300           0.59247200         
S                     0.06692900          -0.91635300          -0.14156700         
Cl                   -2.14223800          -0.22345900          -0.44525500         
Cl                    2.12418100          -0.16045300          -0.41363000         
O                     0.04556900          -1.49899000           1.17125000         
H                     1.05612300           2.36626300          -0.38616000         
