16

C                    -1.19664000           1.88090000          -1.79521000         
C                     1.43402000           1.93637000           1.08273000         
C                     0.05709000           1.72427000          -0.99922000         
C                     0.18420000           2.10516000           0.28114000         
H                    -0.98287000           2.41932000          -2.72349000         
H                    -1.96639000           2.43627000          -1.25021000         
H                     0.89923000           1.26476000          -1.51138000         
H                    -0.65861000           2.55750000           0.79877000         
H                     1.24164000           1.28645000           1.94151000         
H                     2.24706000           1.49779000           0.49578000         
H                     1.76987000           2.90874000           1.45602000         
S                     0.39116000          -2.53956000           0.83985000         
Cl                    1.54384000          -1.86746000          -0.62138000         
Cl                   -1.29912000          -1.62193000           0.37547000         
O                     0.86018000          -1.65118000           1.95370000         
H                    -1.59997000           0.89700000          -2.05327000         
16

C                    -0.96302000           1.47776000          -1.48295000         
C                     1.52205000           2.05883000           1.08438000         
C                     0.16044000           0.79848000          -0.72950000         
C                     0.32437000           1.18983000           0.75283000         
H                    -0.71556000           2.52692000          -1.67440000         
H                    -1.90514000           1.45527000          -0.92610000         
H                     1.09473000           0.87150000          -1.30055000         
H                    -0.59066000           1.59373000           1.20801000         
H                     1.62508000           2.17618000           2.16786000         
H                     2.45149000           1.62383000           0.70184000         
H                     1.40774000           3.05560000           0.64702000         
S                    -0.08015000          -0.81942000          -0.14991000         
Cl                    1.17012000          -2.19252000          -0.92243000         
Cl                   -1.98599000          -1.39826000           0.13861000         
O                     0.53756000          -0.17475000           1.20561000         
H                    -1.12837000           0.99151000          -2.44962000         
16
DE: 45.11160250003172  DG: 31.19553499999654
C                     1.99028800           1.82902800           0.97073200         
C                     2.12497400          -1.45604800          -1.10297100         
C                     1.70562700           0.40016000           0.57546000         
C                     1.87830900          -0.02854200          -0.76550400         
H                     3.04305800           1.97990100           1.24714500         
H                     1.37587500           2.12244800           1.83295300         
H                     1.83986100          -0.36275100           1.34412200         
H                     2.17448000           0.70966100          -1.51319600         
H                     1.57058800          -2.10845600          -0.41891700         
H                     1.83696600          -1.67313200          -2.13586600         
H                     3.20139000          -1.65288700          -0.98233200         
S                    -0.42035100           0.43040600           0.10974500         
Cl                   -0.77187500          -1.35127100           1.21242300         
Cl                   -2.54487200           0.56534700          -0.55428300         
O                     0.01460500           0.05936500          -1.31632100         
H                     1.75608800           2.51690700           0.14604200         
