13

C                    -2.43984000           2.64395000           0.31015000         
C                    -2.85202000           0.20874000          -0.10084000         
C                    -2.55731000           1.43265000          -0.55726000         
H                    -3.02699000           0.02100000           0.95481000         
H                    -2.40637000           1.58102000          -1.62440000         
H                    -1.43785000           3.07374000           0.21778000         
H                    -3.16845000           3.39786000          -0.00356000         
S                    -2.61823000           2.41540000           1.36565000         
Cl                    0.79274000           0.04951000           0.42048000         
Cl                    1.98919000           1.25050000          -0.60078000         
O                     1.82377000          -1.63390000           0.27660000         
H                     1.17373000           0.45149000           1.81473000         
H                    -2.94325000          -0.63264000          -0.78109000         
13

C                    -2.33958000           2.61030000           0.75976000         
C                    -2.67827000           0.21866000           0.12765000         
C                    -1.86071000           1.22062000           0.47791000         
H                    -3.74736000           0.37569000           0.02123000         
H                    -0.30669000           0.24969000          -1.65054000         
H                    -1.73026000           3.33722000           0.21250000         
H                    -3.38121000           2.75464000           0.45518000         
S                    -2.26042000           2.82882000           1.82914000         
Cl                    0.40065000           0.35746000          -0.51073000         
Cl                    2.04728000           1.51679000          -0.79965000         
O                     0.99868000          -1.47180000           0.14803000         
H                    -0.50079000           1.05202000           0.64889000         
H                    -2.31211000          -0.79090000          -0.02718000         
13
DE: 87.99432499998375  DG: 77.5834725000874
C                     2.68380200          -1.26232200          -0.43780900         
C                     1.88536000          -0.05963900          -0.01055700         
C                     2.37733300           0.90554000           0.82492000         
H                     3.68653300          -0.93694800          -0.73966200         
H                     2.20955600          -1.77661500          -1.28137500         
H                     1.25204600           0.34825000          -0.97340600         
H                     3.44495200           0.91716500           1.03521100         
S                    -0.49612300          -0.18055000          -0.59616700         
Cl                   -2.25642200          -1.05892800           0.34802800         
Cl                   -0.81260400           1.82637200          -0.15725600         
O                     0.41622700          -0.74245800           0.54645900         
H                     2.76604200          -1.96407600           0.39898100         
H                     1.74349200           1.69265800           1.22479200         
