8

C                    -1.38513000           0.92850000           0.00734000         
C                     1.03130000           0.49841000          -0.00147000         
C                    -0.13704000           1.41002000           0.00122000         
O                     0.94165000          -0.72213000           0.00163000         
H                    -1.58087000          -0.14110000           0.01053000         
H                     2.00786000           1.01035000          -0.00657000         
H                     0.06908000           2.47286000          -0.00200000         
H                    -2.24095000           1.59489000           0.00931000         
8

C                    -1.28491000           1.31729000           0.00604000         
C                     2.10009000          -1.49780000          -0.00141000         
C                    -0.19989000           2.09638000          -0.00008000         
O                     1.06099000          -1.69169000           0.00331000         
H                    -1.19827000           0.23527000           0.00810000         
H                     0.79736000           1.66828000          -0.00316000         
H                    -0.28742000           3.17821000          -0.00213000         
H                    -2.28204000           1.74596000           0.00913000         
8
DE: 89.20540000001147  DG: 94.08421249999954
C                    -1.77915000          -0.34322700          -0.03275100         
C                     0.76496900           0.05615100          -0.13415800         
C                    -0.63143200           0.43695100           0.01988700         
O                     1.87963400          -0.21465400           0.00211900         
H                    -1.76566500          -1.40767800           0.17328700         
H                     0.02717700           0.55590800           1.11711800         
H                    -0.70409200           1.48957500          -0.28349700         
H                    -2.72081300           0.18018100          -0.14173200         
