11

C                     0.81154000          -0.38349000           0.24529000         
C                    -1.53688000          -0.39817000           0.34549000         
C                     1.99794000           0.52456000           0.03100000         
O                    -0.37265000           0.40354000           0.19153000         
O                     2.99664000           0.19769000          -0.60602000         
H                     0.79968000          -1.14784000          -0.53823000         
H                     0.90783000          -0.84507000           1.23291000         
H                     1.96516000           1.48496000           0.57288000         
H                    -1.52693000          -0.90475000           1.31544000         
H                    -2.41276000           0.25458000           0.30100000         
H                    -1.60629000          -1.13231000          -0.46299000         
11

C                     1.77261000          -1.23098000           0.14228000         
C                    -1.71032000           0.14040000           0.45133000         
C                     2.62177000          -0.32061000          -0.21706000         
O                    -1.12344000           1.42584000           0.38806000         
O                     3.38278000           0.51249000          -0.53962000         
H                     1.22967000          -1.79286000          -0.60574000         
H                     1.60698000          -1.43628000           1.19126000         
H                    -0.15787000           1.31606000           0.41684000         
H                    -1.43687000          -0.34129000           1.39334000         
H                    -2.79668000           0.24360000           0.39980000         
H                    -1.36544000          -0.46266000          -0.39218000         
11
DE: 83.0082100000169  DG: 86.63955250001564
C                     0.31706100           0.88823700           0.23321800         
C                    -2.04667500          -0.43358800           0.29608900         
C                     1.21350600          -0.20089100          -0.13033900         
O                    -1.10234700           0.17971500          -0.58460400         
O                     2.37006100          -0.43305200           0.09147400         
H                     0.32804300           1.81778600          -0.33988900         
H                    -0.10639000           0.95492300           1.24009000         
H                    -0.39791000          -0.52120600          -0.88813100         
H                    -2.77163300          -0.99680200          -0.29978500         
H                    -1.53139700          -1.10831700           0.99470500         
H                    -2.56577000           0.35776400           0.84423600         
