15

C                    -2.06809000           1.39166000          -0.39562000         
C                     2.37958000          -0.80084000          -0.45777000         
C                     1.73353000           0.36312000           0.21809000         
C                    -2.22848000          -0.04252000           0.00661000         
O                     2.19209000           1.54612000          -0.22800000         
O                     0.84180000           0.31161000           1.05039000         
O                    -2.78030000          -0.88010000          -0.70086000         
H                    -2.51012000           1.55543000          -1.38154000         
H                    -1.00620000           1.64132000          -0.43382000         
H                    -1.82012000          -0.31228000           0.99509000         
H                     2.49340000          -1.61736000           0.26012000         
H                     3.37730000          -0.52758000          -0.81329000         
H                     1.76429000          -1.12182000          -1.30116000         
H                    -2.56838000           2.02808000           0.33765000         
H                     1.69098000           2.21665000           0.28061000         
15

C                    -1.64119000           1.44583000          -0.62640000         
C                     1.51771000          -0.80314000          -0.39409000         
C                     0.61830000           0.34537000           0.05738000         
C                    -0.79631000           0.19924000          -0.56491000         
O                     1.28194000           1.54086000          -0.28128000         
O                     0.50545000           0.35325000           1.46925000         
O                    -1.26092000          -0.89132000          -0.90697000         
H                    -2.54682000           1.24467000          -1.20580000         
H                    -1.09227000           2.24917000          -1.12297000         
H                     0.58480000          -0.56981000           1.76754000         
H                     1.12810000          -1.77503000          -0.07246000         
H                     2.52214000          -0.69818000           0.03240000         
H                     1.62484000          -0.81425000          -1.48442000         
H                    -1.92135000           1.74779000           0.38541000         
H                     0.96688000           2.17706000           0.38382000         
15
DE: 83.95259749998672  DG: 74.5407249999937
C                     2.07788700          -0.89204000          -0.14998300         
C                    -1.41605600           1.22182100          -0.38119500         
C                    -1.00759800          -0.14541400           0.04522100         
C                     1.13925200           0.25759200           0.16747800         
O                    -1.09963600          -1.06978700          -0.89727400         
O                    -1.11673300          -0.54851300           1.29007000         
O                     1.46590100           1.40943100           0.02650900         
H                     3.08156100          -0.51042200          -0.37209300         
H                     1.68516800          -1.42963200          -1.02448400         
H                     0.01046200          -0.14353400           1.12123600         
H                    -1.20632700           1.38089600          -1.44222100         
H                    -0.89435600           1.96647500           0.22528400         
H                    -2.49794600           1.28370400          -0.19306400         
H                     2.11311500          -1.60136500           0.68789500         
H                    -1.04883900          -1.92692000          -0.44611500         
