14

C                    -1.31016000          -1.07045000           0.08008000         
C                    -2.43818000          -0.74363000          -0.88380000         
C                     0.09526000           0.84349000           0.02329000         
C                     0.51567000           2.00020000           0.54127000         
O                    -0.83442000           0.10983000           0.72897000         
O                     0.57422000           0.38974000          -1.18383000         
H                    -0.50159000          -1.62929000          -0.40585000         
H                    -1.70411000          -1.72187000           0.86825000         
H                     1.24234000           2.63327000           0.04872000         
H                     0.12401000           2.33963000           1.49514000         
H                    -2.09226000          -0.09896000          -1.69760000         
H                    -3.23907000          -0.20359000          -0.36798000         
H                    -2.85270000          -1.65800000          -1.31781000         
H                     1.21928000           1.03643000          -1.51325000         
14

C                    -1.81386000          -1.69706000          -0.16728000         
C                    -2.82683000          -1.16124000          -0.85333000         
C                     0.67301000           0.75385000           0.34929000         
C                    -0.09522000           2.00363000           0.04312000         
O                     0.82614000           0.29598000           1.47040000         
O                     1.19825000           0.17798000          -0.75510000         
H                    -1.05422000          -2.29911000          -0.65696000         
H                    -1.71528000          -1.54689000           0.90457000         
H                     0.57511000           2.75321000          -0.38488000         
H                    -0.52045000           2.40320000           0.96829000         
H                    -0.91358000           1.77995000          -0.64560000         
H                    -3.58486000          -0.56577000          -0.35424000         
H                    -2.92386000          -1.31942000          -1.92256000         
H                     0.97385000           0.64838000          -1.58002000         
14
DE: 39.749615000015126  DG: 43.35146499998132
C                     1.60598500          -0.72849200          -0.01503600         
C                     1.79785800           0.55821400           0.51891300         
C                    -0.92507700           0.00422100          -0.23692700         
C                    -0.71594200           1.37454300          -0.37085700         
O                    -0.16927600          -0.84379800          -0.78222400         
O                    -1.78388200          -0.41937800           0.71824200         
H                     2.04350300          -0.99167600          -0.97441900         
H                     1.41592600          -1.56857800           0.64959900         
H                    -1.35246200           2.06682000           0.17688900         
H                    -0.27207900           1.70700800          -1.30611200         
H                     0.62616500           1.13611800           0.26070100         
H                     1.82389000           0.65654800           1.60564800         
H                     2.47104600           1.22949300          -0.01720000         
H                    -1.70766500          -1.38124600           0.74019400         
