11

C                    -1.10230000          -1.32735000          -0.47386000         
C                     0.26192000           0.51305000           0.02745000         
C                     0.56976000           1.81037000          -0.04522000         
O                    -0.86277000           0.06661000          -0.63469000         
O                     1.04222000          -0.36535000           0.74408000         
H                    -2.01366000          -1.57816000          -1.02477000         
H                    -1.26424000          -1.57932000           0.57972000         
H                     1.43473000           2.23591000           0.44693000         
H                    -0.06076000           2.48458000          -0.61653000         
H                    -0.28042000          -1.91769000          -0.89303000         
H                     1.77782000           0.13554000           1.13271000         
11

C                    -1.44942000          -1.12395000          -0.75042000         
C                     1.40935000           0.89883000           0.71645000         
C                     1.40506000           2.07060000           0.46057000         
O                    -1.68336000           0.19667000          -1.20618000         
O                     1.40376000          -0.39810000           0.99274000         
H                    -2.23853000          -1.77644000          -1.13086000         
H                    -1.46168000          -1.14022000           0.34216000         
H                     1.39592000           3.11038000           0.22997000         
H                    -0.96020000           0.73941000          -0.84588000         
H                    -0.48208000          -1.47171000          -1.12120000         
H                     2.16337000          -0.62738000           1.55534000         
11
DE: 86.15575000002437  DG: 90.63609999998405
C                    -1.76640100          -0.07322000           0.32767100         
C                     0.77508600           0.04150100          -0.01210900         
C                     1.19329600           1.25592100           0.16832600         
O                    -0.74099100           0.28062600          -0.60245500         
O                     0.96598800          -1.27121400           0.11620100         
H                    -2.73987600           0.15280900          -0.11791900         
H                    -1.62376900           0.48547200           1.26192500         
H                     2.19902300           1.46245100           0.53257300         
H                    -0.35414300           1.27588300          -0.46482900         
H                    -1.67956700          -1.14715400           0.51923300         
H                     1.18647400          -1.64996700          -0.74427000         
