20

C                    -1.04982000          -0.06298000          -1.78512000         
C                    -1.82676000          -0.26755000          -0.50448000         
H                     0.01796000          -0.22885000          -1.61798000         
H                    -1.18572000           0.95628000          -2.15862000         
H                    -1.38896000          -0.76110000          -2.55615000         
C                     2.59945000           1.19923000          -0.29338000         
C                     1.29736000          -0.96235000           1.63778000         
C                     2.40350000          -1.15967000           0.65280000         
C                     2.95381000          -0.24666000          -0.16263000         
H                     3.75893000          -0.57798000          -0.81803000         
H                     2.79615000          -2.17524000           0.60857000         
H                     1.77531000           1.50669000           0.35321000         
H                     2.31199000           1.41537000          -1.32718000         
H                     3.46971000           1.81536000          -0.04658000         
H                     0.47329000          -1.64430000           1.40636000         
H                     0.89784000           0.05354000           1.64751000         
H                     1.65591000          -1.19321000           2.64569000         
H                    -1.49036000           0.43312000           0.26547000         
H                    -2.89562000          -0.10669000          -0.67343000         
H                    -1.68735000          -1.28562000          -0.12901000         
20

C                    -1.17696000          -0.46839000          -1.31666000         
C                    -2.23545000          -0.29176000          -0.25200000         
H                     2.23096000          -0.62871000          -1.39382000         
H                    -0.83114000           0.50343000          -1.68125000         
H                    -1.57373000          -1.03412000          -2.16472000         
C                     2.48484000           1.24730000          -0.38763000         
C                     1.78492000          -0.73010000           1.78092000         
C                     2.42177000          -1.10320000           0.66312000         
C                     2.77040000          -0.24258000          -0.52080000         
H                     3.83911000          -0.37172000          -0.72970000         
H                     2.72887000          -2.14511000           0.57840000         
H                     1.41932000           1.43895000          -0.22464000         
H                     2.78052000           1.76859000          -1.30402000         
H                     3.04858000           1.68527000           0.44284000         
H                    -0.31811000          -1.01221000          -0.91467000         
H                     1.43711000           0.28410000           1.94438000         
H                     1.58902000          -1.45088000           2.56943000         
H                    -1.84350000           0.29091000           0.58700000         
H                    -3.10591000           0.23143000          -0.65879000         
H                    -2.56404000          -1.26389000           0.12751000         
20
DE: 81.056684999986  DG: 73.12884999999142
C                    -1.61865400          -0.32618000           0.73323500         
C                    -1.83659600          -1.03256400          -0.59661000         
H                    -0.11224600          -0.27851900           0.65363000         
H                    -1.49972100          -1.03148600           1.56603000         
H                    -2.47642700           0.30677200           0.99798200         
C                     1.99852500          -1.21314100          -0.02406500         
C                    -0.12932300           1.94620300          -0.06402300         
C                     0.80506700           0.99345100          -0.50317900         
C                     1.18176600          -0.01364800           0.40327900         
H                     1.36657300           0.32318800           1.43153900         
H                     0.88198800           0.78219700          -1.57428400         
H                     3.07605600          -1.01770400           0.05853600         
H                     1.77977700          -1.48009200          -1.06595100         
H                     1.77311700          -2.08612900           0.60161900         
H                    -0.97987600           0.98205300           0.35889900         
H                     0.01130800           2.37750600           0.93224800         
H                    -0.57137300           2.63247000          -0.78791100         
H                    -1.65893800          -0.33993100          -1.43479400         
H                    -1.13816500          -1.87078900          -0.72152700         
H                    -2.85678700          -1.42426700          -0.70783500         
