20

C                     2.00773000           1.07710000           0.13112000         
C                     1.53222000           0.05035000          -0.85272000         
O                     1.52499000          -1.20643000          -0.35633000         
O                     1.23192000           0.30132000          -2.00942000         
H                     1.51150000           2.02926000          -0.07617000         
H                     3.09015000           1.19311000           0.04184000         
H                     1.74967000           0.78844000           1.15339000         
C                    -2.20045000           0.09523000          -0.73875000         
C                    -1.19138000          -0.48975000           2.21606000         
C                    -1.47084000           0.83777000           1.59076000         
C                    -1.90124000           1.08348000           0.34330000         
H                    -2.06412000           2.12310000           0.05933000         
H                    -1.31343000           1.69499000           2.24486000         
H                    -1.96029000          -0.93446000          -0.46703000         
H                    -1.62626000           0.34591000          -1.63584000         
H                    -3.26367000           0.14018000          -0.99472000         
H                    -1.82102000          -0.61951000           3.10172000         
H                    -0.14487000          -0.53343000           2.53363000         
H                    -1.37428000          -1.33382000           1.54834000         
H                     1.80467000          -1.26185000           0.57613000         
20

C                     1.94236000           1.19214000           0.44563000         
C                     0.70894000           0.35891000           0.14008000         
O                     1.07638000          -1.01914000          -0.04159000         
O                     0.01948000           0.89572000          -1.01397000         
H                     1.70100000           2.25913000           0.50326000         
H                     2.70219000           1.06443000          -0.33266000         
H                     2.38485000           0.89655000           1.40262000         
C                    -2.20083000          -0.10883000          -0.88559000         
C                    -1.02435000          -0.48284000           1.93748000         
C                    -0.52198000           0.63036000           1.03801000         
C                    -1.24250000           0.91131000          -0.29931000         
H                    -1.68338000           1.91580000          -0.32968000         
H                    -0.41229000           1.54678000           1.63521000         
H                    -1.75008000          -1.10430000          -0.94850000         
H                    -2.50228000           0.18600000          -1.89606000         
H                    -3.10664000          -0.18103000          -0.27536000         
H                    -1.99335000          -0.21658000           2.37173000         
H                    -0.32393000          -0.65273000           2.76164000         
H                    -1.14429000          -1.42911000           1.40140000         
H                     1.49161000          -1.28156000           0.79516000         
20
DE: 71.064374999996  DG: 56.820752500003096
C                    -1.94564100          -0.53755800           0.90697900         
C                    -0.96486400          -0.19338100          -0.19139300         
O                    -1.49125000           0.76747200          -0.98998800         
O                    -0.32827100          -1.14391300          -0.80803700         
H                    -2.74402200          -1.11887200           0.42447700         
H                    -2.37107300           0.36427400           1.35792100         
H                    -1.47361100          -1.16250800           1.67059500         
C                     2.18610200          -0.92006300          -0.29917600         
C                     0.98141400           1.86235600           0.09497200         
C                     0.48441800           0.63960900           0.82319600         
C                     1.01992200          -0.64090000           0.57858300         
H                     0.77311900          -1.42747600           1.29226300         
H                     0.05459700           0.80422900           1.81084700         
H                     3.09612100          -0.72257700           0.29097500         
H                     2.19024100          -0.26205500          -1.17177000         
H                     2.18467900          -1.96191500          -0.63021700         
H                     1.94678400           2.22607400           0.47755000         
H                     0.25112800           2.67450200           0.19168500         
H                     1.10241700           1.66765400          -0.97888800         
H                    -1.02232200           0.66982300          -1.83020500         
