20

C                     1.28985000          -1.78098000           0.81185000         
C                     1.60464000          -0.36343000           0.46286000         
O                     1.64965000           0.10688000          -0.66150000         
O                     1.87806000           0.39607000           1.53922000         
H                     2.07779000          -2.43244000           0.42677000         
H                     0.32407000          -2.05446000           0.38183000         
H                     1.22894000          -1.90698000           1.89671000         
C                    -1.45790000           1.91199000           0.04492000         
C                    -2.38813000          -0.92533000          -1.03038000         
C                    -2.45819000          -0.40905000           0.37068000         
C                    -2.06070000           0.78942000           0.82623000         
H                    -2.19110000           0.99308000           1.88868000         
H                    -2.88870000          -1.10427000           1.09078000         
H                    -1.33834000           1.69052000          -1.01729000         
H                    -0.47158000           2.15635000           0.45100000         
H                    -2.09010000           2.80120000           0.13275000         
H                    -1.83671000          -1.87066000          -1.04642000         
H                    -1.89372000          -0.24194000          -1.72335000         
H                    -3.39884000          -1.11612000          -1.40426000         
H                     2.06651000           1.28036000           1.16191000         
20

C                    -0.26786000          -1.94356000           0.86686000         
C                     0.75478000           0.78901000           0.30335000         
O                     1.15290000           0.86817000          -0.84638000         
O                     1.61733000           0.89669000           1.33347000         
H                     0.65634000          -1.95894000           0.27930000         
H                    -0.74427000          -2.92387000           0.75710000         
H                    -0.00251000          -1.81919000           1.92178000         
C                    -1.53545000           1.71873000           0.23696000         
C                    -1.55297000          -1.01742000          -1.07807000         
C                    -1.21417000          -0.83060000           0.40322000         
C                    -0.67167000           0.57371000           0.76374000         
H                    -0.67668000           0.65029000           1.86027000         
H                    -2.15336000          -0.96032000           0.95890000         
H                    -1.49365000           1.79353000          -0.85509000         
H                    -1.18303000           2.67751000           0.63392000         
H                    -2.58061000           1.59258000           0.53643000         
H                    -1.90596000          -2.03756000          -1.26624000         
H                    -0.68557000          -0.84144000          -1.72061000         
H                    -2.35509000          -0.34071000          -1.38905000         
H                     2.48709000           1.03368000           0.90315000         
20
DE: 97.76199000000588  DG: 83.47569749997803
C                     1.19982200           1.47334600          -0.13634800         
C                     0.75021600          -0.23040000           0.19750000         
O                     0.61078900          -0.36313500           1.43018300         
O                     1.80397900          -0.85549700          -0.49526400         
H                     0.60143800           2.31938700           0.21572900         
H                     1.58547100           1.63975000          -1.14671600         
H                     2.02993900           1.37664900           0.57611700         
C                    -1.43429500          -1.62592400           0.02900300         
C                    -1.64353100           1.33874400           0.32036700         
C                    -0.80202000           0.74134700          -0.74198700         
C                    -0.54665100          -0.66585800          -0.72937900         
H                    -0.15189100          -1.04464200          -1.67275000         
H                    -0.58645900           1.31593500          -1.64206200         
H                    -0.97198700          -2.61908600           0.01880700         
H                    -2.42997100          -1.70094300          -0.42806600         
H                    -1.51638200          -1.31727200           1.07552100         
H                    -1.22788000           1.00678200           1.28680000         
H                    -2.65410400           0.91186500           0.23443700         
H                    -1.69452000           2.42977800           0.26577100         
H                     2.55695800          -0.75668100           0.10213100         
