18

C                     2.26020000          -0.99763000          -0.95769000         
C                     2.07674000           0.04766000           0.10530000         
O                     1.40272000          -0.33274000           1.23374000         
O                     0.81645000          -1.65754000           1.05467000         
O                     2.51076000           1.18912000          -0.02276000         
H                    -0.11090000          -1.35575000           1.02871000         
H                     2.88055000          -0.58365000          -1.75896000         
H                     1.29675000          -1.27855000          -1.38947000         
H                     2.78258000          -1.86659000          -0.54964000         
C                    -1.43569000           1.81271000           0.26735000         
C                    -1.32395000           0.86597000          -0.88333000         
C                    -1.91143000          -0.33575000          -0.93403000         
H                    -1.80149000          -0.96900000          -1.80987000         
H                    -0.72944000           1.20489000          -1.73014000         
H                    -0.43878000           2.06975000           0.63759000         
H                    -2.00766000           1.38635000           1.09738000         
H                    -1.93073000           2.73407000          -0.05410000         
H                    -2.53240000          -0.70403000          -0.12324000         
18

C                     2.46214000          -0.79105000          -1.36615000         
C                     2.11925000           0.64453000          -1.11456000         
O                    -0.17604000          -0.27858000           1.07856000         
O                    -0.11937000          -1.71275000           0.85519000         
O                     2.72914000           1.36027000          -0.32477000         
H                    -0.52867000          -1.95877000           1.70303000         
H                     2.94338000          -0.87807000          -2.34288000         
H                     1.54537000          -1.38467000          -1.36023000         
H                     3.13356000          -1.15891000          -0.58676000         
C                    -1.50861000           1.67809000           0.65640000         
C                    -1.20699000           0.24866000           0.31634000         
C                    -1.86327000          -0.40094000          -0.65972000         
H                    -1.63293000          -1.42548000          -0.93027000         
H                     1.30677000           1.05533000          -1.73669000         
H                    -0.59875000           2.28349000           0.58862000         
H                    -1.89572000           1.74838000           1.67794000         
H                    -2.25178000           2.11616000          -0.01800000         
H                    -2.65306000           0.08361000          -1.22458000         
18
DE: 100.86560499998157  DG: 90.0920575000022
C                     2.05727000          -0.85560000          -1.06492000         
C                     1.53119000           0.37965000          -0.39278000         
O                     0.56200000          -0.20719000           0.97669000         
O                     0.55594000          -1.59893000           1.09116000         
O                     2.09553000           1.38177000          -0.09578000         
H                     0.21969000          -1.71506000           1.98788000         
H                     2.57793000          -0.53349000          -1.97320000         
H                     1.25753000          -1.55922000          -1.30578000         
H                     2.76819000          -1.33390000          -0.38126000         
C                    -1.01877000           1.74356000           0.45626000         
C                    -0.77194000           0.38079000          -0.10054000         
C                    -1.63429000          -0.56794000          -0.49670000         
H                     0.28456000           0.53831000          -0.88496000         
H                    -0.06173000           2.26243000           0.59318000         
H                    -1.51360000           1.67066000           1.43215000         
H                    -1.64122000           2.33012000          -0.23045000         
H                    -1.28116000          -1.46616000          -0.86213000         
H                    -2.65061000          -0.39937000          -0.43594000         
