18

C                     1.31935000           0.88886000           1.56174000         
C                     1.80655000           0.70114000           0.15357000         
O                     1.18555000           1.43748000          -0.81756000         
O                     0.02746000           2.13410000          -0.26581000         
O                     2.71805000          -0.07561000          -0.12074000         
H                    -0.64245000           1.61864000          -0.75272000         
H                     0.29626000           0.51894000           1.66408000         
H                     1.39522000           1.93931000           1.85392000         
H                     1.95708000           0.31078000           2.23810000         
C                    -0.48533000          -2.34584000          -0.17146000         
H                    -2.21086000          -0.62131000          -0.74191000         
C                    -1.18227000          -1.40121000          -1.09656000         
C                    -0.82405000          -1.37908000          -2.12426000         
H                    -2.61122000          -0.63002000           0.26777000         
H                    -0.84105000          -2.25114000           0.85934000         
H                     0.59105000          -2.15180000          -0.17860000         
H                    -0.64958000          -3.37693000          -0.49908000         
H                    -2.69556000           0.02379000          -1.46880000         
18

C                     1.29589000           0.23538000           1.68457000         
C                     1.58932000          -0.78867000           0.62195000         
O                    -0.29559000           0.96997000          -1.56174000         
O                    -0.71495000           1.83313000          -0.47144000         
O                     2.53426000          -0.65558000          -0.15742000         
H                    -0.90343000           2.60807000          -1.02910000         
H                     0.21683000           0.38687000           1.77026000         
H                     1.75490000           1.18948000           1.41156000         
H                     1.69982000          -0.10627000           2.64032000         
C                     0.74678000          -2.03563000           0.61139000         
H                    -2.36737000          -0.20602000          -1.03573000         
C                    -1.29811000           0.06136000          -1.79454000         
C                    -1.08872000          -0.47049000          -2.71574000         
H                    -2.55588000           0.31105000          -0.10168000         
H                    -0.11017000          -1.92748000           1.28142000         
H                     1.35180000          -2.88210000           0.94501000         
H                     0.37553000          -2.21362000          -0.40071000         
H                    -3.07652000          -0.96925000          -1.33746000         
18
DE: 126.71672249995282  DG: 114.15291749999909
C                     1.11748000           0.39970000           1.54458000         
C                     1.48459000           0.05318000           0.14202000         
O                     0.25934000           0.58823000          -0.85375000         
O                    -0.34894000           1.81960000          -0.51721000         
O                     2.51646000           0.01657000          -0.40756000         
H                    -1.28964000           1.52913000          -0.64950000         
H                     0.06641000           0.21071000           1.75342000         
H                     1.34439000           1.46441000           1.68607000         
H                     1.75499000          -0.20043000           2.20164000         
C                     0.43854000          -1.89512000           0.00483000         
H                    -2.22373000          -0.15456000           0.60648000         
C                    -1.97857000          -0.36104000          -0.43668000         
C                    -0.71472000          -0.54651000          -0.94602000         
H                    -0.62808000          -0.93733000          -1.95615000         
H                    -2.74668000          -0.87568000          -1.01322000         
H                    -0.26238000          -2.11061000           0.81705000         
H                     1.45907000          -2.10005000           0.36326000         
H                     0.27959000          -2.59763000          -0.81961000         
