16

O                    -1.01515000           0.69364000          -1.57313000         
O                    -0.86270000          -0.38635000          -0.61129000         
H                     0.08005000          -0.22932000          -0.40685000         
C                     3.26888000          -0.89259000          -0.96203000         
C                     2.32840000           1.69832000           0.62091000         
C                     2.31486000           0.27990000           1.09205000         
C                     2.71188000          -0.81427000           0.42301000         
H                     2.63520000          -1.77368000           0.93502000         
H                     1.94070000           0.14118000           2.10650000         
H                     4.27298000          -1.32728000          -0.93051000         
H                     3.33866000           0.07659000          -1.45959000         
H                     2.63655000          -1.54081000          -1.57674000         
H                     2.71941000           1.81797000          -0.39129000         
H                     2.94513000           2.30329000           1.29291000         
H                     1.31069000           2.10078000           0.63772000         
H                    -1.81414000           1.08834000          -1.17539000         
16

O                    -0.02880000           0.60903000          -1.19186000         
O                    -0.06462000           0.34951000           0.23966000         
H                     1.23891000          -1.71205000          -0.24441000         
C                     2.94435000          -0.70587000          -1.06751000         
C                     2.02021000           1.57736000           0.55152000         
C                     1.29454000           0.24350000           0.69631000         
C                     1.99181000          -0.98653000           0.08723000         
H                     2.57577000          -1.47892000           0.87486000         
H                     1.19925000           0.04691000           1.77140000         
H                     3.80780000          -0.12220000          -0.73210000         
H                     2.45176000          -0.16618000          -1.88066000         
H                     3.32711000          -1.64856000          -1.47250000         
H                     2.09387000           1.89193000          -0.49471000         
H                     3.02819000           1.52877000           0.97407000         
H                     1.46461000           2.36660000           1.06972000         
H                    -0.53318000           1.44230000          -1.15973000         
16
DE: 52.17662499999321  DG: 42.61101499999597
O                    -1.27868000           0.45144000          -0.78689000         
O                    -0.09259000          -0.04088000          -0.21455000         
H                     0.88722000          -0.89409000          -0.38001000         
C                     3.11926000          -0.82909000          -0.87061000         
C                     1.96003000           1.67092000           0.45336000         
C                     1.60560000           0.28530000           0.86307000         
C                     2.06543000          -0.88074000           0.22079000         
H                     2.05381000          -1.78246000           0.83924000         
H                     1.12029000           0.17036000           1.83239000         
H                     4.10751000          -0.56757000          -0.46768000         
H                     2.86163000          -0.09697000          -1.64484000         
H                     3.20495000          -1.80610000          -1.35866000         
H                     2.08785000           1.74241000          -0.63064000         
H                     2.91263000           1.94757000           0.93299000         
H                     1.19170000           2.38242000           0.77092000         
H                    -1.65485000           1.13649000          -0.21234000         
