12

O                    -1.87352000          -1.37933000          -0.37444000         
O                    -1.52036000          -1.08686000           1.00540000         
H                    -0.79872000          -1.73941000           1.08035000         
C                     2.18878000          -1.64062000          -0.20430000         
C                     1.80280000          -0.31889000          -0.82894000         
H                     1.45166000          -0.46651000          -1.85454000         
H                     2.53254000          -1.49396000           0.82396000         
H                     2.99509000          -2.11346000          -0.77293000         
H                     1.33365000          -2.32273000          -0.18786000         
H                    -1.85211000          -0.45840000          -0.69651000         
H                     2.66061000           0.35982000          -0.85269000         
H                     1.00229000           0.15835000          -0.25608000         
12

O                    -1.27206000          -1.31690000          -0.93381000         
O                    -0.35636000          -1.33667000           0.01827000         
H                     1.73590000          -2.54524000           2.67566000         
C                     0.88985000          -1.47013000          -0.62163000         
C                     1.40926000          -0.11242000          -1.08139000         
H                     0.71897000           0.33120000          -1.82934000         
H                     2.06317000          -1.91878000           2.71741000         
H                     1.60878000          -1.90165000           0.10567000         
H                     0.83913000          -2.18408000          -1.47642000         
H                    -1.62037000          -0.38856000          -0.93260000         
H                     2.40991000          -0.23352000          -1.54711000         
H                     1.49662000           0.57465000          -0.21320000         
12
DE: 111.46219749999752  DG: 105.53420500000101
O                    -1.84132000          -0.94702000          -0.06588000         
O                    -0.57611000          -1.06433000           0.49222000         
H                     0.26029000          -1.28299000           1.64218000         
C                     1.53593000          -1.45788000          -0.13847000         
C                     1.56397000          -0.22090000          -0.86511000         
H                     1.09553000          -1.34866000           1.67235000         
H                     2.41285000          -1.72099000           0.44829000         
H                     0.97669000          -2.29460000          -0.54110000         
H                     1.82694000          -0.41197000          -1.88454000         
H                     2.28781000           0.43393000          -0.42676000         
H                     0.59805000           0.23777000          -0.82589000         
H                    -1.76046000          -0.77617000          -1.01729000         
