17

C                     1.62754000           1.66885000           0.29604000         
C                     1.63157000           0.33878000           0.98652000         
O                     2.14194000          -0.64913000           0.21767000         
O                     1.24106000           0.15255000           2.12758000         
H                     1.13254000           1.58553000          -0.67490000         
H                     2.65355000           2.02418000           0.17460000         
H                     1.06977000           2.38936000           0.90098000         
C                    -1.55027000          -1.78456000          -0.23812000         
C                    -1.45383000          -0.62444000          -1.17536000         
C                    -2.49115000           0.14435000          -1.52795000         
H                    -2.36331000           0.97491000          -2.21489000         
H                    -0.47163000          -0.41311000          -1.58746000         
H                    -1.20014000          -2.69382000          -0.73629000         
H                    -2.57642000          -1.95633000           0.10195000         
H                    -0.92293000          -1.61016000           0.64089000         
H                     2.43167000          -0.34747000          -0.66372000         
H                    -3.49005000          -0.03617000          -1.14183000         
17

C                     1.52532000           1.75385000          -0.03893000         
C                     0.92168000           0.37416000          -0.24850000         
O                     1.79808000          -0.57750000           0.33810000         
O                    -0.34986000           0.35831000           0.40234000         
H                     0.87989000           2.53096000          -0.46058000         
H                     2.51787000           1.82133000          -0.49528000         
H                     1.64075000           1.96757000           1.02987000         
C                    -1.31583000          -1.85638000           0.03796000         
C                    -1.28510000          -0.39376000          -0.28056000         
C                    -2.18671000           0.21179000          -1.06222000         
H                    -2.16195000           1.28717000          -1.20721000         
H                     0.84491000           0.17991000          -1.32678000         
H                    -0.49391000          -2.37566000          -0.46325000         
H                    -2.25370000          -2.32183000          -0.28320000         
H                    -1.22090000          -2.01391000           1.11721000         
H                     1.52150000          -1.43859000          -0.01035000         
H                    -2.97204000          -0.34412000          -1.56292000         
17
DE: 105.6132700000154  DG: 94.80081749995591
C                     1.65766200           1.21109600          -0.22689500         
C                     0.94728800          -0.08398600           0.04047200         
O                     1.68931900          -1.15052000          -0.29457400         
O                     0.14457700          -0.24176900           1.05942500         
H                     0.94468900           2.03562600          -0.29930600         
H                     2.25804500           1.13653100          -1.13838300         
H                     2.31652900           1.38721400           0.63479600         
C                    -1.79305600          -1.14787000          -0.24808500         
C                    -1.07090700           0.16546300          -0.13541500         
C                    -1.67056000           1.37744000          -0.04867700         
H                    -1.13511900           2.30266700           0.13872100         
H                    -0.09267600           0.05313100          -0.95017100         
H                    -2.60075200          -1.04600700          -0.98194500         
H                    -2.21003900          -1.41735600           0.72720700         
H                    -1.12149500          -1.94938000          -0.57717900         
H                     1.30129900          -1.90140000           0.17781200         
H                    -2.75421900           1.40442900          -0.13876400         
