17

C                     2.52441000           0.50810000           0.73691000         
C                     2.06607000           0.57314000          -0.68822000         
O                     2.15801000          -0.61449000          -1.32523000         
O                     1.67165000           1.58989000          -1.23677000         
H                     2.04468000          -0.33037000           1.24861000         
H                     2.23274000           1.42810000           1.25181000         
H                     3.61146000           0.40660000           0.77027000         
C                    -1.71388000           1.70086000           0.38042000         
C                    -1.56918000           0.31010000           0.90732000         
C                    -2.59402000          -0.52019000           1.13406000         
H                    -2.42475000          -1.52269000           1.51413000         
H                    -0.55852000          -0.03053000           1.10953000         
H                    -1.27235000           2.41306000           1.08426000         
H                    -2.76202000           1.97722000           0.22831000         
H                    -1.19315000           1.79473000          -0.57705000         
H                     2.49790000          -1.33693000          -0.76433000         
H                    -3.62055000          -0.22321000           0.94245000         
17

C                     2.53991000           0.39321000           1.84592000         
C                     0.09502000           0.26515000          -0.81132000         
O                     0.48755000          -1.01947000          -0.84271000         
O                     0.76157000           1.13750000          -1.33870000         
H                     3.09668000          -0.31994000           2.45728000         
H                     2.73883000           1.40851000           2.19536000         
H                     2.85248000           0.29979000           0.80359000         
C                    -1.63997000           1.90462000          -0.00810000         
C                    -1.17706000           0.48196000          -0.08206000         
C                    -1.86435000          -0.53329000           0.46771000         
H                    -1.52006000          -1.56176000           0.40889000         
H                     1.47141000           0.18399000           1.92850000         
H                    -0.96457000           2.49211000           0.62257000         
H                    -2.64746000           1.98405000           0.41420000         
H                    -1.66774000           2.35682000          -1.00508000         
H                     1.33081000          -0.98850000          -1.33917000         
H                    -2.79444000          -0.36134000           0.99973000         
17
DE: 106.14413499999486  DG: 96.42227749999975
C                     1.47458100          -0.41211900           1.30026200         
C                     0.68420500          -0.09857300          -0.28309200         
O                     0.79125500          -1.05769000          -1.04098700         
O                     1.20710300           1.15938300          -0.55328900         
H                     1.49855300           0.38989200           2.04795400         
H                     2.44998600          -0.51565100           0.81973300         
H                     1.14423000          -1.37309800           1.70666800         
C                    -1.82714900          -1.09020500           0.00563500         
C                    -1.02345400           0.16380900           0.12845400         
C                    -1.47784100           1.41277000           0.24038500         
H                    -0.78044600           2.24927200           0.29093100         
H                     0.15793600          -0.01928500           0.87910100         
H                    -1.54554000          -1.81900000           0.77834300         
H                    -1.61109900          -1.55414600          -0.96329900         
H                    -2.89867900          -0.87774600           0.09453900         
H                     1.16463800           1.22514400          -1.51592700         
H                    -2.54848600           1.62698500           0.26631100         
