20

C                     1.55690000          -1.49884000           0.85328000         
C                     1.50279000          -0.73048000          -0.44776000         
H                     0.82187000          -1.10830000           1.56300000         
H                     2.54912000          -1.41675000           1.30681000         
H                     1.34209000          -2.55801000           0.68314000         
C                    -1.62530000           1.65456000          -0.81945000         
C                    -2.48311000          -1.21272000           0.24913000         
C                    -2.17199000           0.01004000           1.04995000         
C                    -1.80822000           1.22059000           0.59877000         
H                    -1.61691000           1.99676000           1.33935000         
H                    -2.25283000          -0.12121000           2.12871000         
H                    -0.59802000           2.00152000          -0.96876000         
H                    -2.30082000           2.48712000          -1.03948000         
H                    -1.82046000           0.86376000          -1.54634000         
H                    -2.38338000          -1.06581000          -0.82803000         
H                    -3.50946000          -1.53429000           0.45151000         
H                    -1.80878000          -2.02436000           0.54002000         
H                     1.69615000           0.33238000          -0.27487000         
H                     2.25338000          -1.10797000          -1.14842000         
H                     0.51838000          -0.83077000          -0.91376000         
20

C                     0.52068000          -1.10121000           0.73664000         
C                     1.14457000          -0.81467000          -0.61916000         
H                    -0.23441000           1.40601000           1.31721000         
H                     1.15890000          -0.65741000           1.51072000         
H                     0.55195000          -2.18561000           0.90570000         
C                    -1.34865000           1.50265000          -0.51953000         
C                    -1.92485000          -1.38814000           0.07804000         
C                    -0.92884000          -0.61748000           0.94596000         
C                    -1.10197000           0.91306000           0.86284000         
H                    -1.96385000           1.18713000           1.48620000         
H                    -1.16563000          -0.88333000           1.98686000         
H                    -0.53592000           1.28802000          -1.21534000         
H                    -1.43863000           2.59174000          -0.44462000         
H                    -2.28109000           1.13029000          -0.95365000         
H                    -1.75670000          -1.22697000          -0.99073000         
H                    -2.95174000          -1.08553000           0.30946000         
H                    -1.84772000          -2.46431000           0.26766000         
H                     1.34871000           0.25239000          -0.74265000         
H                     2.10481000          -1.33504000          -0.70210000         
H                     0.51189000          -1.15433000          -1.44294000         
20
DE: 102.18586500000114  DG: 93.41466999997785
C                     1.10183000          -1.35254000           0.81257000         
C                     1.07362000          -0.74406000          -0.43576000         
H                    -0.25354000           0.38432000           0.69497000         
H                     1.60901000          -0.92129000           1.66728000         
H                     0.83812000          -2.40681000           0.83089000         
C                    -1.44341000           1.57957000          -0.85348000         
C                    -1.95743000          -1.28695000           0.10400000         
C                    -1.48463000          -0.19483000           0.99074000         
C                    -1.26842000           1.12022000           0.56674000         
H                    -1.09137000           1.86415000           1.34570000         
H                    -1.36565000          -0.39359000           2.05579000         
H                    -0.78625000           2.43100000          -1.05276000         
H                    -2.48514000           1.89073000          -1.01700000         
H                    -1.17818000           0.78187000          -1.55503000         
H                    -1.26046000          -1.40963000          -0.74635000         
H                    -2.94269000          -1.01077000          -0.29948000         
H                    -2.02154000          -2.23075000           0.65053000         
H                     1.73519000          -1.26063000          -1.09937000         
H                     1.38577000           0.27517000          -0.34288000         
H                     0.07816000          -0.77799000          -0.82667000         
