10

C                    -1.24455000          -0.16622000           0.10000000         
O                    -1.49395000           1.06291000          -0.56171000         
H                    -2.17701000           1.52468000          -0.04625000         
H                    -0.52760000          -0.74618000          -0.48503000         
C                     2.73887000           0.23454000           0.20625000         
O                     2.16469000          -0.76771000           0.61512000         
H                     3.20518000           0.96220000           0.88957000         
H                     2.82810000           0.46711000          -0.86705000         
H                    -2.17784000          -0.72834000           0.18810000         
H                    -0.83260000           0.03252000           1.09228000         
10

C                    -0.83110000          -0.49283000          -0.01434000         
O                     0.17568000           0.11225000          -0.73621000         
H                     0.11894000           2.43038000           1.14680000         
H                    -0.75826000          -1.59759000          -0.10735000         
C                     1.49633000          -0.07972000          -0.49609000         
O                     1.87793000          -0.81975000           0.39882000         
H                     0.75340000           2.25294000           1.40602000         
H                     2.22741000           0.43550000          -1.10901000         
H                    -1.81282000          -0.16437000          -0.41298000         
H                    -0.76411000          -0.20131000           1.05576000         
10
DE: 63.03551249998897  DG: 54.21976500000682
C                    -1.41470200          -0.46202700           0.05453300         
O                    -0.62023600           0.68236700          -0.24066300         
H                    -0.16330300           1.10763800           0.79776300         
H                    -1.34029200          -0.72060400           1.12141800         
C                     0.96749500           0.37374400          -0.04592600         
O                     1.31099600          -0.76008100          -0.00655700         
H                     0.74581600           1.06327600           1.30133300         
H                     1.43204700           1.22886700          -0.55574300         
H                    -1.06750400          -1.31248200          -0.54025400         
H                    -2.44960400          -0.21528300          -0.19839500         
