11

C                     0.09811000           0.25331000          -0.41804000         
H                    -1.08220000           1.15568000          -0.10740000         
C                     1.18022000           0.58007000           0.45305000         
O                    -0.24631000          -1.11594000          -0.23125000         
O                     2.30488000          -0.25392000           0.02778000         
O                     1.91960000          -1.10912000           0.30326000         
H                     0.41554000           0.39406000          -1.45693000         
H                    -1.94304000           0.90334000          -0.73414000         
H                    -1.39159000           1.04559000           0.93809000         
H                    -0.81889000           2.20719000          -0.25879000         
H                    -0.85932000          -1.14708000           0.52198000         
11

C                    -0.18084000           0.41896000           0.26674000         
H                    -1.42676000           1.22603000           0.07529000         
C                     0.95108000           0.87995000           0.27595000         
O                    -0.41857000          -0.90049000           0.42767000         
O                     2.61745000          -0.82516000          -1.11652000         
O                     2.18244000          -1.17133000          -0.31776000         
H                     2.39504000           0.12054000          -1.02249000         
H                    -1.99786000           0.83314000          -0.76965000         
H                    -2.02529000           1.20674000           0.98902000         
H                    -1.15406000           2.26175000          -0.14705000         
H                    -1.36562000          -1.13684000           0.37659000         
11
DE: 65.03661000001955  DG: 70.82969000001782
C                     0.09109000           0.07191000           0.06134000         
H                    -1.62185000          -0.77741000          -0.14221000         
C                    -1.08628000           1.04986000          -0.16859000         
O                     1.06391000           0.23545000           0.86394000         
O                    -0.76018000          -1.05306000           0.15463000         
O                     2.26788000          -0.11319000          -0.47875000         
H                     3.24152000          -0.20344000          -0.55187000         
H                     0.86931000          -0.02708000          -0.92612000         
H                    -1.74998000           0.64272000          -0.90251000         
H                    -0.70741000           1.98958000          -0.51250000         
H                    -1.61540000           1.19335000           0.75029000         
