11

C                    -0.15244000           0.62135000           0.08303000         
H                    -0.81616000           0.13100000           1.35816000         
C                     1.26926000           0.50468000           0.16497000         
O                    -0.62397000          -0.13255000          -1.02994000         
O                     1.58416000          -0.92730000           0.12992000         
O                     1.13915000          -1.12346000          -0.71909000         
H                    -0.39714000           1.67705000          -0.07485000         
H                    -1.90128000           0.26466000           1.30482000         
H                    -0.63260000          -0.93740000           1.51549000         
H                    -0.42790000           0.66481000           2.23095000         
H                    -0.58538000           0.47365000          -1.78946000         
11

C                     0.04376000           0.02834000           0.03600000         
H                    -0.77398000           0.01484000           1.31588000         
C                     0.45079000           1.32215000          -0.31730000         
O                    -0.73606000          -0.46085000          -1.01578000         
O                     1.17358000          -0.77722000           0.19520000         
O                     1.43719000          -0.97238000          -0.71658000         
H                     0.33676000           1.87561000           0.47160000         
H                    -1.66624000           0.64265000           1.21840000         
H                    -1.10236000          -1.00139000           1.55980000         
H                    -0.18790000           0.38918000           2.16222000         
H                    -0.51974000           0.15547000          -1.73542000         
11
DE: 69.16430500001354  DG: 75.56229500001834
C                     0.02509000           0.63293000           0.02270000         
H                    -1.36306000          -0.33822000          -0.70124000         
C                    -0.87931000           0.04583000           1.06971000         
O                     1.28085000           0.86019000           0.01303000         
O                    -0.67885000           0.25587000          -1.03836000         
O                     1.58064000          -1.06111000           0.10143000         
H                     1.92443000          -1.21958000          -0.78603000         
H                     0.65087000           1.93027000           0.07058000         
H                    -1.88279000           0.01814000           0.69936000         
H                    -0.84150000           0.64909000           1.95263000         
H                    -0.55752000          -0.94772000           1.30254000         
