11

C                     0.02307000          -0.28576000           0.64349000         
C                     1.47257000           0.48347000          -0.59789000         
C                     0.53869000           1.13590000           0.41482000         
O                    -1.27797000          -0.57705000           0.11813000         
O                     1.08998000          -0.83902000          -0.15818000         
H                     0.10735000          -0.62453000           1.68196000         
H                     1.21340000           0.64295000          -1.64877000         
H                     2.53776000           0.67327000          -0.44174000         
H                     1.03545000           1.58282000           1.28004000         
H                    -0.18065000           1.84087000          -0.00883000         
H                    -1.89385000          -0.19352000           0.76245000         
11

C                    -0.52425000           0.33042000           1.10624000         
C                     2.06337000          -0.17629000          -1.21227000         
C                     0.02286000           1.54409000           1.08260000         
O                    -1.57566000           0.00238000           0.30059000         
O                     2.26964000          -1.36067000          -0.97747000         
H                    -0.18237000          -0.47429000           1.74559000         
H                     1.24173000           0.16234000          -1.86383000         
H                     2.68816000           0.62369000          -0.78318000         
H                     0.85921000           1.79186000           1.72631000         
H                    -0.36475000           2.31302000           0.42246000         
H                    -1.83213000          -0.91696000           0.49837000         
11
DE: 61.11097000001479  DG: 64.7310174999707
C                    -0.19079000          -0.08908000           0.85308000         
C                     1.43807000           0.20844000          -0.65938000         
C                     0.40514000           1.13912000           0.46216000         
O                    -1.27760000          -0.60151000           0.37002000         
O                     1.61787000          -0.94528000          -0.09974000         
H                     0.17701000          -0.71191000           1.66472000         
H                     0.75077000           0.28781000          -1.53678000         
H                     2.32434000           0.85314000          -0.86341000         
H                     1.05705000           1.54402000           1.23663000         
H                    -0.23738000           1.85529000          -0.04687000         
H                    -1.60388000          -0.04428000          -0.35382000         
