11

C                     0.05007000          -0.31887000           0.69061000         
C                    -1.47299000           0.43839000          -0.47038000         
C                    -1.07773000          -0.98321000          -0.09330000         
O                     1.37814000          -0.54324000           0.21347000         
O                    -0.42098000           0.99991000           0.34716000         
H                    -0.00548000          -0.47691000           1.77299000         
H                    -1.34038000           0.69785000          -1.52461000         
H                    -2.46198000           0.75566000          -0.12846000         
H                    -1.80674000          -1.51932000           0.51969000         
H                    -0.76306000          -1.60946000          -0.93194000         
H                     1.78783000           0.33160000           0.32628000         
11

C                     0.77341000           0.30204000           1.33049000         
C                    -2.03930000           0.04008000          -0.87203000         
C                    -1.79877000          -1.24866000          -0.61583000         
O                     1.64591000          -0.37233000           0.56544000         
O                     0.67837000           1.51442000           1.27884000         
H                     0.19639000          -0.37523000           1.97669000         
H                    -1.53610000           0.55416000          -1.68519000         
H                    -2.74177000           0.61100000          -0.27251000         
H                    -2.30205000          -1.76154000           0.19760000         
H                    -1.09289000          -1.81581000          -1.21496000         
H                     2.08340000           0.32427000           0.03306000         
11
DE: 53.81063500000536  DG: 56.977627499999386
C                     0.58984200           0.05574400           0.37242400         
C                    -1.51461300           0.29773500          -0.03510800         
C                    -1.05092000          -1.02675700          -0.10628900         
O                     1.73699400          -0.44037700          -0.08637400         
O                     0.18329200           1.17958700          -0.10295700         
H                     0.47636200          -0.20486300           1.43327000         
H                    -1.83929600           0.83981700          -0.92057400         
H                    -1.89008200           0.69994400           0.90629600         
H                    -1.18002200          -1.69475900           0.74266400         
H                    -0.95729300          -1.49297700          -1.08615400         
H                     1.88219300          -0.02117500          -0.94701500         
