12

C                     1.13959000           1.59857000           0.02695000         
C                     0.04679000           1.87781000          -0.61606000         
H                     2.03702000           1.36612000           0.55391000         
H                    -0.45390000           1.12160000          -1.21060000         
H                    -0.39980000           2.86330000          -0.54930000         
C                    -2.41580000          -0.51890000           0.88170000         
C                    -2.65740000          -1.28140000          -0.18810000         
H                    -1.60960000          -0.75710000           1.56870000         
H                    -3.01370000           0.36290000           1.08910000         
H                    -3.46060000          -1.04110000          -0.87740000         
H                    -2.05570000          -2.16090000          -0.39480000         
H                     1.38070000           2.67020000           0.08580000         
12

C                     0.63693000           1.67261000           0.28533000         
C                    -0.66759000           1.43276000           0.10272000         
H                     1.28355000           0.96099000           0.78933000         
H                    -1.18855000          -0.88208000          -1.31332000         
H                    -1.27519000           2.17990000          -0.40424000         
C                    -1.36659000           0.18890000           0.56795000         
C                    -1.96289000          -0.58301000          -0.59876000         
H                    -0.67917000          -0.46401000           1.11841000         
H                    -2.16483000           0.47211000           1.26344000         
H                    -2.70634000           0.01822000          -1.13311000         
H                    -2.45893000          -1.48972000          -0.23785000         
H                     1.08722000           2.59443000          -0.07000000         
12
DE: 80.75423000000058  DG: 70.06100249999676
C                     1.75181300          -0.04502800          -0.22031700         
C                     0.54607500          -0.22649700           0.47118900         
H                     2.36414700          -0.89860500          -0.50525300         
H                     0.06267800          -1.26149900           0.19735000         
H                     0.42236400          -0.27739400           1.55906600         
C                    -0.70037500           0.73972800           0.03096500         
C                    -1.53749300          -0.39805600          -0.25718000         
H                    -1.00724400           1.37485400           0.86466800         
H                    -0.40581100           1.34329800          -0.82828900         
H                    -1.59783900          -0.79603500          -1.26915800         
H                    -2.19067300          -0.82292900           0.50408600         
H                     1.99225800           0.91743200          -0.67041700         
