15

C                     1.62786000           0.44630000           0.64139000         
C                     0.77498000           1.46438000           0.47445000         
C                     2.22261000          -0.34049000          -0.47980000         
H                     1.91422000           0.15500000           1.64935000         
H                     0.37075000           1.99615000           1.33015000         
H                     1.96181000          -1.39781000          -0.37321000         
H                     1.86888000           0.00116000          -1.45773000         
C                    -1.34206000          -2.04913000          -0.33567000         
C                    -2.31858000          -1.26029000           0.12034000         
H                    -0.80378000          -2.71517000           0.33121000         
H                    -1.05557000          -2.03735000          -1.38238000         
H                    -2.59918000          -1.26689000           1.16882000         
H                    -2.85180000          -0.58826000          -0.54444000         
H                     0.45695000           1.78669000          -0.51208000         
H                     3.31301000          -0.25168000          -0.46010000         
15

C                     0.47101000           0.01104000          -0.28751000         
C                     0.40251000           1.11284000           0.48294000         
C                     1.77736000          -0.35876000          -0.93963000         
H                     1.09847000          -1.69007000           2.17867000         
H                    -0.50750000           1.42678000           0.97673000         
H                     2.09284000          -1.36505000          -0.59213000         
H                     1.64822000          -0.38120000          -2.04213000         
C                    -0.69284000          -0.88822000          -0.53927000         
C                    -1.92475000          -0.71923000          -0.03976000         
H                     0.73283000          -2.22315000           1.88996000         
H                    -0.52971000          -1.75169000          -1.17834000         
H                    -2.19199000           0.10598000           0.60701000         
H                    -2.70240000          -1.43532000          -0.28559000         
H                     1.27705000           1.73734000           0.63866000         
H                     2.58899000           0.36141000          -0.69942000         
15
DE: 125.02435499999883  DG: 117.93297750001472
C                     0.73066700           0.00690500           0.01615100         
C                     1.73445000          -0.86066800           0.03027200         
C                     0.67920900           1.48402700          -0.02959500         
H                    -0.15160500          -0.99263200           0.69442100         
H                     1.51478900          -1.93700200           0.09233800         
H                    -0.32393800           1.80071100           0.30262300         
H                     1.46769000           1.93479900           0.58363100         
C                    -0.96291800          -0.68251900          -0.17311500         
C                    -2.07559700           0.09533600           0.09413600         
H                    -0.75756700          -1.81024400           0.50215300         
H                    -0.82266500          -1.14554500          -1.14944000         
H                    -2.29740400           0.46137700           1.09279600         
H                    -2.83752200           0.16320000          -0.67503100         
H                     2.78545900          -0.57015000          -0.00637400         
H                     0.78790300           1.83699900          -1.06421000         
