10

C                     0.70919000           0.04260000           0.42482000         
C                     0.12898000           1.38368000           0.01812000         
O                    -0.20442000          -0.98415000           0.11705000         
O                     1.89633000          -0.22636000          -0.28422000         
H                     1.69936000          -0.03087000          -1.21560000         
H                     0.92143000           0.02991000           1.49855000         
H                     0.84344000           2.19133000           0.20484000         
H                    -0.79874000           1.58771000           0.56188000         
H                    -0.11123000           1.39723000          -1.05103000         
H                     0.14457000          -1.77208000           0.56690000         
10

C                     0.14205000          -0.36607000           0.01345000         
C                    -0.22764000           1.07637000          -0.11835000         
O                    -0.72062000          -1.23455000           0.58174000         
O                     1.22555000          -0.75592000          -0.39482000         
H                     3.14350000           1.44751000          -0.07728000         
H                     3.13017000           1.29940000           0.61496000         
H                     0.50304000           1.70306000           0.43421000         
H                    -1.24090000           1.25435000           0.29947000         
H                    -0.22363000           1.36726000          -1.18969000         
H                    -0.50251000          -2.17252000           0.67772000         
10
DE: 72.9142449999982  DG: 78.89996750000947
C                     0.06544700          -0.03608200           0.09935200         
C                    -1.42084600           0.00918000          -0.07499100         
O                     0.63352700           1.15519700          -0.03162000         
O                     0.76736100          -1.08441000          -0.24751800         
H                     0.54317900          -1.06892500           1.00362200         
H                     0.10378600          -0.37754500           1.65965800         
H                    -1.85310400           0.85924600           0.46055600         
H                    -1.85682300          -0.93459600           0.25897400         
H                    -1.59407800           0.12465300          -1.15503100         
H                     1.58232100           0.99228400          -0.14083700         
