11

C                     0.65041000          -0.24084000          -0.16766000         
C                    -1.81658000          -0.37336000           0.17515000         
C                    -0.74516000           0.26309000          -0.30900000         
O                     1.42725000           0.80347000           0.39530000         
O                    -3.10082000           0.07831000           0.05791000         
H                    -3.08539000           0.94388000          -0.38677000         
H                     0.71058000          -1.11848000           0.48373000         
H                     1.06144000          -0.49333000          -1.14968000         
H                    -1.78196000          -1.31357000           0.71280000         
H                    -0.85633000           1.20447000          -0.83819000         
H                     2.31734000           0.44207000           0.54130000         
11

C                     0.80836000           0.11520000          -0.14153000         
C                    -1.54126000          -0.62361000           0.21437000         
C                    -0.49701000           0.39423000          -0.09605000         
O                     1.73677000           1.07465000          -0.43053000         
O                    -2.77487000           0.03320000           0.46334000         
H                    -3.02360000           0.48867000          -0.35872000         
H                    -1.28090000          -1.19742000           1.10892000         
H                     1.22782000          -0.86728000           0.03442000         
H                    -1.68234000          -1.31108000          -0.62518000         
H                    -0.81417000           1.41630000          -0.28279000         
H                     2.62178000           0.67296000          -0.37146000         
11
DE: 68.05865000002285  DG: 71.4233050000172
C                    -1.07915000           0.27257800          -0.29909300         
C                     1.06658600           0.20493900           0.29395300         
C                    -0.01939700          -0.62325800          -0.05082500         
O                    -2.36260800           0.04282300           0.09331000         
O                     2.30996300          -0.05346400          -0.20151500         
H                     2.97553000           0.36798200           0.34867000         
H                     0.00479600           1.25962000           0.06497700         
H                    -1.07110200           0.88217700          -1.20373500         
H                     1.06709300           0.69276500           1.27250500         
H                    -0.02245900          -1.71133800          -0.14574900         
H                    -2.34092900          -0.53162600           0.86477000         
