11

C                    -1.50481000           1.29035000          -0.48034000         
C                    -0.38957000           1.79704000          -1.00631000         
O                     0.80216000          -1.13313000           1.16163000         
O                     0.82239000          -1.52232000          -0.23748000         
O                    -1.55019000           0.16696000           0.29414000         
H                     0.33924000          -2.36774000          -0.14096000         
H                    -0.63864000          -0.18304000           0.39992000         
H                    -2.48968000           1.71985000          -0.61622000         
H                     0.57889000           1.33495000          -0.84991000         
H                    -0.42785000           2.69423000          -1.61499000         
H                     1.76376000          -1.20945000           1.32324000         
11

C                    -0.03477000           1.08415000          -0.51312000         
C                     0.09508000           2.07473000          -1.39590000         
O                     0.57287000          -0.63000000           0.81731000         
O                     0.88377000           0.07370000          -0.41335000         
O                    -1.97651000          -1.89794000           0.85126000         
H                    -1.89254000          -2.34769000          -0.00322000         
H                    -1.10977000          -1.45869000           0.93890000         
H                    -0.87528000           1.00983000           0.16538000         
H                     0.94687000           2.12016000          -2.06638000         
H                    -0.64936000           2.86116000          -1.46275000         
H                     1.34534000          -0.30141000           1.31446000         
11
DE: 64.81196499998035  DG: 54.44189999998102
C                    -0.73533000           0.49833000          -0.63043000         
C                     0.29908000           1.27553000          -0.26043000         
O                     1.23470000          -0.85232000          -0.06963000         
O                    -0.07770000          -1.11285000          -0.44776000         
O                    -1.73820000          -0.11369000           0.56223000         
H                    -0.94675000          -0.94539000           0.45587000         
H                    -1.59534000           0.46287000           1.32518000         
H                    -1.39969000           0.58008000          -1.48486000         
H                     1.82520000          -1.00729000          -0.82341000         
H                     0.93283000           1.66582000          -0.97531000         
H                     0.45860000           1.48126000           0.73820000         
