14

C                    -2.05301000          -1.73690000          -0.43211000         
C                     0.22984000           1.88781000           0.06363000         
C                     0.99664000           0.70508000           0.61245000         
O                    -0.68921000           2.37310000           1.02589000         
O                    -0.90438000          -1.91981000          -1.23726000         
O                     0.87120000          -0.44254000           0.19361000         
H                    -0.13000000          -1.65042000          -0.69567000         
H                    -1.90629000          -0.88571000           0.23809000         
H                    -2.24170000          -2.64086000           0.15155000         
H                    -0.30696000           1.60394000          -0.84603000         
H                     0.94175000           2.68137000          -0.17859000         
H                     1.67516000           0.93208000           1.45243000         
H                    -2.90868000          -1.53580000          -1.08064000         
H                    -1.41385000           1.72427000           1.08193000         
14

C                    -1.72496000          -1.65220000          -0.02617000         
C                    -0.07710000           2.08771000          -0.58968000         
C                     0.53360000          -1.25639000           0.55440000         
O                    -0.92623000           1.63779000           0.45460000         
O                    -0.33497000          -1.81727000          -0.31538000         
O                     1.74733000          -1.28436000           0.41220000         
H                     0.28103000           1.22525000          -1.15605000         
H                    -1.92512000          -0.85416000           0.69460000         
H                    -2.11652000          -2.59740000           0.35947000         
H                    -0.63790000           2.74877000          -1.25494000         
H                     0.77497000           2.62054000          -0.16079000         
H                     0.04360000          -0.78457000           1.41856000         
H                    -2.24121000          -1.41386000          -0.96019000         
H                    -1.23622000           2.43586000           0.91857000         
14
DE: 67.64700999999206  DG: 56.879109999998434
C                    -1.74065400          -0.69739300          -0.50345000         
C                     1.31997800          -0.45619600           0.64065300         
C                    -0.04995300           0.90070900           0.47136400         
O                     1.66736900          -0.66079000          -0.67957300         
O                    -1.23138700          -0.17177100           0.72326300         
O                     0.05575400           1.36819900          -0.63612500         
H                    -0.06486700          -0.54899000           0.86278300         
H                    -0.96772400          -1.27756100          -1.02489800         
H                    -2.06336200           0.12706500          -1.14701800         
H                     1.24199200          -1.43567500           1.15360800         
H                     2.03192000           0.14760700           1.22412200         
H                    -0.03105600           1.43591300           1.43086100         
H                    -2.59021000          -1.33830600          -0.25138500         
H                     1.33320100           0.12212600          -1.15999100         
