13

C                    -1.28581000          -0.16529000          -0.48674000         
C                     0.63380000           0.97067000           0.38999000         
C                     1.68321000          -0.09812000           0.14006000         
O                    -0.40987000           0.94430000          -0.57654000         
O                    -2.00981000          -0.17601000           0.72734000         
H                    -1.48040000          -0.68681000           1.35891000         
H                    -0.75872000          -1.11417000          -0.62860000         
H                    -2.01128000          -0.07276000          -1.30020000         
H                     1.10993000           1.95373000           0.30935000         
H                     0.22620000           0.89657000           1.40380000         
H                     2.54667000           0.05104000           0.79507000         
H                     2.01891000          -0.07674000          -0.90157000         
H                     1.28417000          -1.09851000           0.33262000         
13

C                    -2.07863000          -0.63506000          -0.65957000         
C                     1.18286000           1.34993000          -0.08004000         
C                     1.86379000           0.02194000          -0.02962000         
O                     0.33714000           1.57431000          -0.93029000         
O                    -2.72142000          -0.12171000           0.24053000         
H                    -0.52309000          -0.51410000           2.26542000         
H                    -1.35997000          -1.41549000          -0.43591000         
H                    -2.22338000          -0.30872000          -1.68345000         
H                     1.43867000           2.12065000           0.63966000         
H                    -0.47668000           0.19204000           2.28500000         
H                     2.59711000           0.00696000           0.80351000         
H                     2.39652000          -0.16309000          -0.98573000         
H                     1.11408000          -0.77976000           0.13408000         
13
DE: 67.12179249999835  DG: 73.9778575000237
C                    -1.56699000          -0.41193000          -0.48396000         
C                     0.63346000           1.02087000           0.19442000         
C                     1.60271000          -0.14769000           0.31596000         
O                    -0.20078000           1.04489000          -0.71931000         
O                    -1.75222000          -0.46872000           0.74566000         
H                    -0.69920000           0.03089000           1.40501000         
H                    -0.90473000          -1.12562000          -0.99187000         
H                    -2.26690000           0.15886000          -1.10888000         
H                     0.91567000           1.94839000           0.72749000         
H                     0.00611000           0.53965000           1.62092000         
H                     1.22603000          -0.98253000          -0.23727000         
H                     1.70622000          -0.41961000           1.34565000         
H                     2.55679000           0.13812000          -0.07510000         
