11

C                    -0.95293000          -1.05052000           0.83667000         
C                     1.22324000          -0.75012000          -0.03680000         
C                     1.46412000           0.75377000           0.02022000         
O                    -0.09959000          -1.18204000          -0.29253000         
O                     0.59223000           1.61671000          -0.01379000         
H                    -1.01564000          -0.01240000           1.17291000         
H                    -1.95464000          -1.38035000           0.54779000         
H                     1.60056000          -1.19617000           0.89043000         
H                     1.84511000          -1.12643000          -0.85605000         
H                     2.52507000           1.04146000           0.11692000         
H                    -0.60143000          -1.68822000           1.65363000         
11

C                    -1.25573000          -0.67297000           0.63787000         
C                     2.16799000          -0.63341000           0.34305000         
C                     0.89665000           0.00593000          -0.14677000         
O                    -0.21767000          -0.89323000          -0.30789000         
O                     1.38210000           0.21476000           1.18732000         
H                    -1.47747000           0.39406000           0.73750000         
H                    -2.15493000          -1.18840000           0.29059000         
H                     2.15867000          -1.69416000           0.55683000         
H                     3.10994000          -0.24653000          -0.02040000         
H                     0.98265000           0.83069000          -0.84524000         
H                    -0.96599000          -1.09084000           1.60653000         
11
DE: 86.85792249999935  DG: 87.9711075000067
C                     1.66485500           0.10029100          -0.28965100         
C                    -1.08116600          -0.95313800          -0.40466500         
C                    -0.71196800           0.14069200           0.46683700         
O                     0.70620400          -0.45481800           0.58781400         
O                    -0.89119300           1.21195400          -0.21625000         
H                     2.12173900          -0.68877500          -0.90182300         
H                     1.19508900           0.86618400          -0.92258300         
H                    -0.65822600          -0.86954200          -1.40487400         
H                    -1.79405900          -1.75871000          -0.19718500         
H                    -1.06904900           0.08828400           1.51177900         
H                     2.45410000           0.57840300           0.30704600         
