8

C                    -0.46912000           1.07221000          -0.00543000         
C                    -1.20658000          -0.17679000          -0.42940000         
O                     0.85729000           1.06494000          -0.50202000         
O                    -1.66460000          -0.99516000           0.36277000         
H                    -0.45007000           1.14775000           1.08555000         
H                    -0.99513000           1.93990000          -0.41236000         
H                    -1.31886000          -0.31297000          -1.51840000         
H                     1.34316000           0.38202000          -0.00450000         
8

C                    -0.38180000           1.19005000          -0.66740000         
C                    -1.18476000           0.14456000          -0.46664000         
O                     0.76692000           1.42972000           0.03389000         
O                    -1.03445000          -0.76413000           0.54356000         
H                    -0.56433000          -0.32446000           1.27378000         
H                    -0.55056000           1.94069000          -1.42951000         
H                    -2.05525000          -0.07084000          -1.07375000         
H                     1.10034000           0.57621000           0.36237000         
8
DE: 65.3898925000015  DG: 68.97856500000096
C                    -0.82116900           0.52324500           0.00086600         
C                     0.56655900           0.80764300           0.05516500         
O                    -1.18868800          -0.65932200          -0.00400000         
O                     1.24424600          -0.57441600          -0.07627100         
H                     1.18848900           0.02086600           0.90667300         
H                    -1.54683100           1.35369400          -0.01232400         
H                     1.08666400           1.59692100          -0.47818300         
H                     0.35487100          -1.08690800          -0.11018300         
