14

C                    -2.12197000           0.26412000          -0.64121000         
C                     1.81228000           1.09796000          -0.05179000         
C                     1.81884000          -0.26334000           0.57391000         
O                    -2.45843000           1.51872000          -0.10689000         
O                    -1.62959000          -0.52657000           0.41224000         
O                     2.74590000          -1.05652000           0.44492000         
H                    -2.42230000          -0.81660000           0.89736000         
H                    -1.35217000           0.37714000          -1.40943000         
H                    -3.00556000          -0.20327000          -1.08485000         
H                     2.72999000           1.25017000          -0.62563000         
H                     0.95210000           1.18475000          -0.71869000         
H                     0.93145000          -0.51775000           1.17683000         
H                    -1.61185000           1.95426000           0.08429000         
H                     1.74601000           1.85415000           0.73375000         
14

C                    -1.11682000           0.29024000           0.00772000         
C                     1.20942000           1.27330000          -0.35735000         
C                     0.40952000           0.10103000           0.19725000         
O                    -1.57399000           1.53042000           0.50050000         
O                    -1.83241000          -0.70745000           0.70880000         
O                     0.87379000          -1.09683000          -0.43847000         
H                    -2.72791000          -0.69599000           0.33300000         
H                     0.62096000          -1.05903000          -1.37617000         
H                    -1.37312000           0.20968000          -1.05453000         
H                     2.28373000           1.08088000          -0.26342000         
H                     1.00637000           1.41409000          -1.42456000         
H                     0.63120000          -0.00559000           1.26522000         
H                    -1.25412000           1.57835000           1.41784000         
H                     0.97800000           2.20399000           0.16897000         
14
DE: 85.26721000002055  DG: 74.77164500001706
C                    -0.90981800          -0.45141500          -0.23552500         
C                     1.16139900           1.23174300           0.36616200         
C                     1.02125300          -0.26331700           0.36671300         
O                    -1.27709700           0.56207000          -1.09614700         
O                    -1.43188500          -0.32697600           1.04031400         
O                     1.71334500          -0.97335000          -0.49882900         
H                    -2.39451000          -0.34433700           0.97829600         
H                     0.38319100          -0.92749500          -0.54727500         
H                    -1.21348100          -1.39673700          -0.72698300         
H                     1.15979400           1.60245600          -0.66580300         
H                     0.40430100           1.71943100           0.99253600         
H                     0.80530500          -0.68853500           1.36313000         
H                    -0.97023300           1.40002600          -0.73188400         
H                     2.15372300           1.43917200           0.79116900         
