13

C                    -2.29415000          -1.00479000          -0.23519000         
C                     0.65367000           1.67176000          -0.55685000         
C                     1.39971000           0.59974000           0.17648000         
O                    -1.21921000          -0.99628000           0.68825000         
O                     2.26542000          -0.09749000          -0.34450000         
H                    -0.84073000          -1.89424000           0.68380000         
H                    -1.92045000          -1.27009000          -1.22721000         
H                    -3.04888000          -1.72560000           0.08822000         
H                     0.93644000           1.66968000          -1.61236000         
H                    -0.41913000           1.48733000          -0.47151000         
H                     1.14034000           0.48171000           1.24216000         
H                    -2.73756000          -0.00688000          -0.27098000         
H                     0.89372000           2.64154000          -0.11530000         
13

C                    -1.88421000          -0.48699000          -0.43005000         
C                     0.21059000           1.59551000          -0.92593000         
C                     0.44644000           0.22087000          -0.35616000         
O                    -0.54836000          -0.68386000          -0.15420000         
O                     1.58800000          -0.09429000          -0.06189000         
H                     0.62199000          -2.07031000           2.17750000         
H                    -2.02836000          -0.29284000          -1.51428000         
H                    -2.44831000          -1.40264000          -0.15829000         
H                     0.79753000           1.71129000          -1.86108000         
H                    -0.85433000           1.78758000          -1.16137000         
H                     0.64184000          -1.44874000           2.51592000         
H                    -2.27959000           0.36117000           0.16858000         
H                     0.54587000           2.35955000          -0.19363000         
13
DE: 63.07692750000925  DG: 54.38354249998568
C                     1.93803500          -0.06250900          -0.17274100         
C                    -1.76241600          -0.61925500          -0.22276400         
C                    -0.62182600           0.26124100           0.18182700         
O                     0.71361700          -0.74113600           0.06086500         
O                    -0.43366600           1.40889100          -0.04634900         
H                     0.26872700          -0.59016300           1.20052200         
H                     1.73901000           1.00143200          -0.35824400         
H                     2.59801100          -0.16096000           0.69865000         
H                    -2.69539000          -0.17190600           0.13526500         
H                    -1.76698800          -0.65000500          -1.31991400         
H                    -0.49275900          -0.11374700           1.68050800         
H                     2.42515900          -0.50587000          -1.04784800         
H                    -1.63814000          -1.62768500           0.17699800         
