8

C                    -0.41728000           0.08431000          -0.44141000         
C                    -1.67854000           0.04835000           0.39525000         
O                     0.43117000           1.15669000          -0.06784000         
O                    -2.78356000          -0.25286000          -0.04698000         
H                    -0.68881000           0.20626000          -1.49342000         
H                     0.12268000          -0.85801000          -0.31332000         
H                    -1.53378000           0.21279000           1.47622000         
H                     0.86592000           0.92136000           0.76959000         
8

C                    -0.33919000          -0.25269000          -0.06255000         
C                    -1.68134000           0.36756000           0.20365000         
O                     0.65551000           0.61551000          -0.61757000         
O                    -1.46468000          -0.51038000          -0.90792000         
H                    -1.81938000           1.41834000          -0.01480000         
H                    -0.01072000          -1.06672000           0.57374000         
H                    -2.26831000          -0.01041000           1.02990000         
H                     1.24591000           0.95768000           0.07365000         
8
DE: 75.42173499999869  DG: 78.09112000000063
C                     0.53271500          -0.37767000           0.20792800         
C                    -0.70097300           0.41952200           0.19888700         
O                     1.70118000           0.00087300          -0.17350100         
O                    -1.70347800          -0.22957500          -0.28374600         
H                    -0.65146700           0.61821500           1.35977100         
H                     0.46206200          -1.43155800           0.49128800         
H                    -0.45579700           1.45921100          -0.18124100         
H                     1.67313300           0.93263300          -0.45272600         
