11

C                     2.12114000          -0.84473000           0.05087000         
C                    -0.47437000           2.24713000           0.03521000         
O                     1.22557000          -1.93552000           0.14354000         
C                    -0.95528000           1.04756000           0.12063000         
O                    -1.34749000          -0.05779000           0.19765000         
H                     0.32043000          -1.56827000           0.18229000         
H                     1.90524000          -0.26941000          -0.85281000         
H                     2.01654000          -0.20924000           0.93376000         
H                     0.59198000           2.40551000           0.12327000         
H                     3.14488000          -1.22343000          -0.00032000         
H                    -1.12635000           3.09259000          -0.13599000         
11

C                     2.13606000          -0.31248000           0.03894000         
C                    -0.02208000           1.53045000           0.04497000         
O                     0.78456000          -0.75116000           0.11293000         
C                    -0.19390000           0.20605000           0.10887000         
O                    -1.47918000          -0.27264000           0.17859000         
H                    -1.35863000          -1.23798000           0.21562000         
H                     2.32385000           0.22404000          -0.89691000         
H                     2.39640000           0.30521000           0.90472000         
H                     0.94640000           2.00769000          -0.01242000         
H                     2.77804000          -1.19835000           0.05304000         
H                    -0.88932000           2.18366000           0.04973000         
11
DE: 35.48763500000348  DG: 23.654867500023187
C                    -1.78096200           0.23662000           0.26879600         
C                     1.14993800           1.25187400          -0.00251200         
O                    -0.71090200          -0.31655100          -0.50532400         
C                     0.74526400          -0.01801000          -0.04070000         
O                     1.08943200          -1.20480300           0.19358800         
H                    -0.23692000          -1.29792900          -0.19564300         
H                    -1.84630200           1.30419500           0.04245600         
H                    -2.70343100          -0.26373000          -0.03872200         
H                     0.50970000           2.05376600          -0.35474400         
H                    -1.59228400           0.08867200           1.33886000         
H                     2.15556600           1.46295200           0.34818300         
