9

C                    -1.14688000           0.43403000           0.32529000         
C                     0.06368000          -0.45896000           0.49414000         
O                    -2.13858000          -0.26559000          -0.41140000         
H                    -2.90038000           0.33173000          -0.50303000         
H                    -1.56039000           0.70866000           1.30030000         
H                    -0.87953000           1.34422000          -0.21981000         
H                    -0.20727000          -1.38113000           1.01882000         
H                     0.84923000           0.05076000           1.05891000         
H                     0.46442000          -0.75422000          -0.48123000         
9

C                    -0.72803000           0.08029000          -0.34651000         
C                     0.36023000          -0.60101000           0.41542000         
O                    -1.52501000          -0.57583000          -0.99702000         
H                    -3.49353000           1.16667000           0.69639000         
H                    -3.15756000           1.09197000           1.31511000         
H                    -0.81450000           1.16179000          -0.32326000         
H                    -0.08151000          -1.29289000           1.16282000         
H                     0.98029000           0.15412000           0.94220000         
H                     1.00382000          -1.17561000          -0.28314000         
9
DE: 87.55821249999691  DG: 93.38956999998771
C                    -0.15930800           0.35030500          -0.21530200         
C                     1.22200600          -0.18022000           0.05702300         
O                    -1.20232000          -0.40338100           0.01505600         
H                    -0.95206600           0.73272700           0.77082500         
H                    -0.24664300           1.41993200           0.81681400         
H                    -0.19465400           1.07267100          -1.05528700         
H                     1.23508000          -0.70762100           1.01548600         
H                     1.98765700           0.60301800           0.02093600         
H                     1.41299700          -0.91418300          -0.73954500         
