14

C                     0.38254000           0.63323000          -0.36856000         
C                    -0.92995000           0.02479000           0.11662000         
C                    -2.12960000           0.80623000          -0.39327000         
C                     1.56665000          -0.14091000           0.14299000         
O                     2.68189000           0.61309000           0.19718000         
O                     1.60030000          -1.31879000           0.45435000         
H                     3.36880000          -0.00464000           0.52497000         
H                     0.45669000           1.66608000          -0.00914000         
H                     0.42729000           0.64016000          -1.46280000         
H                    -1.00962000          -1.01660000          -0.21730000         
H                    -0.94732000           0.00627000           1.21309000         
H                    -2.09174000           1.84779000          -0.05859000         
H                    -2.16599000           0.79742000          -1.48731000         
H                    -3.05761000           0.36278000          -0.01901000         
14

C                     0.58124000           1.27445000          -0.66084000         
C                    -0.49766000           0.85011000           0.30414000         
C                    -1.85562000           0.49939000          -0.19850000         
C                     0.68228000          -0.03315000           0.05273000         
O                     1.64650000          -0.12929000           1.08688000         
O                     0.49724000          -1.20550000          -0.72126000         
H                     2.51237000          -0.34192000           0.70016000         
H                     1.24287000           2.07558000          -0.35548000         
H                     0.36895000           1.25324000          -1.72283000         
H                     0.16470000          -1.91816000          -0.15033000         
H                    -0.54488000           1.35352000           1.26302000         
H                    -2.48374000           1.39506000          -0.23515000         
H                    -1.83088000           0.06516000          -1.20324000         
H                    -2.33098000          -0.22149000           0.47390000         
14
DE: 90.63421749998881  DG: 93.85517499998926
C                    -0.11089200          -0.62458700           1.10084300         
C                    -0.92309900          -0.60713100          -0.23378200         
C                    -1.99939900           0.44184500          -0.36258000         
C                     0.79663200          -0.00963100           0.14913000         
O                     0.97367200           1.30044000           0.24397300         
O                     1.51860900          -0.66536300          -0.73688000         
H                     1.47750900           1.56505500          -0.54021600         
H                     0.18483900          -1.62093800           1.43073800         
H                    -0.47869900           0.02651800           1.89722300         
H                     0.34775200          -0.80180400          -1.06095100         
H                    -1.21608600          -1.62982700          -0.50004100         
H                    -2.40223100           0.46441700          -1.38303400         
H                    -2.84092700           0.27340800           0.32754000         
H                    -1.58986100           1.43958500          -0.14966500         
