14

C                    -0.30467000           0.41902000           0.84287000         
C                     1.00291000           1.10029000           0.44519000         
C                     1.97088000           0.15048000          -0.24672000         
C                    -1.18418000           0.10523000          -0.33825000         
O                    -2.15775000          -0.77122000          -0.02121000         
O                    -1.11385000           0.57103000          -1.46211000         
H                    -2.66369000          -0.87377000          -0.85450000         
H                    -0.87265000           1.08365000           1.50329000         
H                    -0.08973000          -0.50845000           1.38527000         
H                     0.80619000           1.95810000          -0.20828000         
H                     1.48587000           1.48969000           1.34916000         
H                     2.90559000           0.67007000          -0.48044000         
H                     1.55617000          -0.23271000          -1.18388000         
H                     2.21031000          -0.70211000           0.39689000         
14

C                    -0.81788000          -0.06843000           1.57336000         
C                     0.86044000           1.28977000          -0.36634000         
C                     1.98152000           0.27152000          -0.48324000         
C                    -1.06902000          -0.02503000           0.26200000         
O                    -2.11541000          -0.77703000          -0.21440000         
O                    -0.39366000           0.68924000          -0.68811000         
H                    -2.09642000          -0.60654000          -1.17260000         
H                    -0.02861000           0.48876000           2.05748000         
H                    -1.43930000          -0.68572000           2.21558000         
H                     1.02840000           2.07670000          -1.11026000         
H                     0.85061000           1.79061000           0.60712000         
H                     2.95527000           0.74601000          -0.33363000         
H                     1.96737000          -0.19988000          -1.47190000         
H                     1.86799000          -0.53058000           0.25244000         
14
DE: 103.665509999975  DG: 106.6216624999663
C                     1.54014700           0.50522500           0.33059100         
C                     2.05561400          -0.55609800          -0.56252400         
C                    -0.95971900           0.03275800           0.10902800         
C                    -0.73184900           1.36934500          -0.21425700         
O                    -0.15312100          -0.65842400           0.79070100         
O                    -2.05997900          -0.58361200          -0.34942600         
H                     1.63280000           1.51885400          -0.04113700         
H                     1.69929800           0.39960300           1.40063900         
H                    -1.37425400           1.86014300          -0.94305900         
H                    -0.35924500           1.98343500           0.60208400         
H                     3.14104000          -0.38213700          -0.66920700         
H                     1.60858300          -0.47680600          -1.55934300         
H                     1.88484200          -1.55301800          -0.15182900         
H                    -1.95342400          -1.52116700          -0.14538600         
