14

C                     0.49171000          -0.84724000           0.67245000         
C                    -0.88859000          -0.87201000           0.02645000         
C                    -1.66005000           0.42120000           0.24892000         
C                     1.42368000           0.08747000          -0.04586000         
O                     1.77224000           1.15306000           0.69842000         
O                     1.83713000          -0.03890000          -1.18616000         
H                     2.35565000           1.67424000           0.10787000         
H                     0.42240000          -0.56841000           1.73010000         
H                     0.94514000          -1.84453000           0.64082000         
H                    -1.46457000          -1.70126000           0.45327000         
H                    -0.80289000          -1.05918000          -1.05033000         
H                    -1.77647000           0.62948000           1.31731000         
H                    -1.15294000           1.27304000          -0.21466000         
H                    -2.65904000           0.34474000          -0.19191000         
14

C                    -0.11002000          -1.44069000           0.89940000         
C                    -0.27202000          -0.37188000          -0.17381000         
C                    -1.39686000           0.60064000           0.16646000         
C                     1.04351000           0.33851000          -0.38794000         
O                     1.31123000           1.28480000           0.53034000         
O                     1.85819000           0.07887000          -1.25904000         
H                     2.19767000           1.61685000           0.27585000         
H                     0.14838000          -0.99844000           1.86797000         
H                     0.69020000          -2.14044000           0.63455000         
H                    -1.03481000          -2.01376000           1.02218000         
H                    -0.52703000          -0.85586000          -1.12497000         
H                    -1.24528000           1.06916000           1.14512000         
H                    -1.45856000           1.40133000          -0.57851000         
H                    -2.36140000           0.08260000           0.18899000         
14
DE: 105.50973249999146  DG: 108.38368250001196
C                     0.58674000          -1.04002000           0.92819000         
C                    -0.31431000          -0.39688000          -0.42477000         
C                    -1.43657000           0.57036000          -0.15560000         
C                     1.19268000          -0.02401000          -0.07169000         
O                     1.20553000           1.25791000           0.52533000         
O                     2.11862000          -0.33631000          -0.84998000         
H                     1.98661000           1.65068000           0.11789000         
H                     0.22056000          -0.67975000           1.88887000         
H                     0.98339000          -2.05038000           0.83737000         
H                    -0.55642000          -1.32525000           0.39378000         
H                    -0.31550000          -1.03655000          -1.30853000         
H                    -1.88215000           0.86650000          -1.08224000         
H                    -1.05120000           1.43301000           0.34663000         
H                    -2.17383000           0.09888000           0.46008000         
