16

C                     0.32530000          -1.81273000          -0.41094000         
C                    -2.50413000           1.01315000          -0.44088000         
C                    -1.33783000           1.95611000          -0.24999000         
C                     1.33673000          -0.75959000          -0.10042000         
O                     1.54066000          -0.60827000           1.22060000         
O                     1.97255000          -0.10777000          -0.91139000         
H                     2.23236000           0.08395000           1.27675000         
H                    -0.15363000          -1.58109000          -1.36632000         
H                    -0.45272000          -1.82697000           0.35741000         
H                    -2.84590000           1.02997000          -1.48000000         
H                    -3.34082000           1.30138000           0.20230000         
H                    -0.98240000           1.92410000           0.78426000         
H                    -1.63322000           2.98376000          -0.48154000         
H                    -0.50884000           1.68091000          -0.90837000         
H                     0.81397000          -2.78778000          -0.46537000         
H                    -2.21647000          -0.01164000          -0.19019000         
16

C                    -0.18669000          -1.41499000          -0.91017000         
C                    -2.31753000           0.62351000          -0.58331000         
C                    -0.89426000           1.09021000          -0.82392000         
C                     0.15826000           0.01944000          -0.61105000         
O                     1.38373000           0.49335000           2.46968000         
O                     1.29380000           0.32795000          -0.23374000         
H                     1.59919000           0.29008000           1.53484000         
H                    -0.66066000          -1.49006000          -1.89146000         
H                    -0.84950000          -1.80309000          -0.13296000         
H                    -2.63232000          -0.09290000          -1.34895000         
H                    -3.00624000           1.47338000          -0.61998000         
H                     1.51138000           1.45364000           2.49051000         
H                    -0.67252000           1.90948000          -0.12990000         
H                    -0.78980000           1.47144000          -1.84471000         
H                     0.72781000          -2.01511000          -0.92289000         
H                    -2.41875000           0.14107000           0.39402000         
16
DE: 88.24093250000317  DG: 79.15661499996787
C                    -0.13812000          -1.28303000          -0.29957000         
C                    -1.75366000           0.54612000          -0.23279000         
C                    -0.46701000           1.36957000          -0.21233000         
C                     0.86425000          -0.15564000          -0.31011000         
O                     1.15490000           0.13695000           1.37295000         
O                     1.82406000           0.02417000          -0.98344000         
H                     2.06392000           0.46668000           1.35341000         
H                     0.45021000           0.91940000           0.78032000         
H                    -0.52316000           2.21019000           0.50280000         
H                    -0.16413000           1.79080000          -1.17378000         
H                    -2.40626000           0.92297000          -0.99239000         
H                    -2.23688000           0.61579000           0.71934000         
H                    -1.51899000          -0.47713000          -0.43964000         
H                    -0.38998000          -1.54577000          -1.30578000         
H                    -1.02046000          -0.97096000           0.21907000         
H                     0.28512000          -2.13199000           0.19545000         
