14

C                    -0.11982000          -0.66211000          -0.53190000         
C                     0.88406000          -0.55701000           0.60582000         
C                     2.33822000          -0.53686000           0.13393000         
C                     2.69404000           0.69963000          -0.67707000         
H                     0.08296000          -1.53883000          -1.15506000         
H                    -0.09975000           0.22746000          -1.16820000         
H                     0.67118000           0.34063000           1.19796000         
H                     0.74643000          -1.41662000           1.27255000         
H                     2.99044000          -0.57562000           1.01456000         
H                     2.55119000          -1.43465000          -0.45794000         
H                     2.46973000           1.61382000          -0.11848000         
H                     3.76344000           0.69995000          -0.91145000         
H                     2.14746000           0.72929000          -1.62416000         
H                    -1.13360000          -0.75947000          -0.13026000         
14

C                    -0.18090000          -1.07980000          -0.49716000         
C                     0.81436000          -1.27291000           0.59931000         
C                     2.03517000          -1.79308000           0.42241000         
C                     2.60764000           1.80606000          -0.61033000         
H                     0.16361000          -1.50172000          -1.44659000         
H                    -0.37211000          -0.01249000          -0.64430000         
H                     1.96518000           1.73211000           0.26975000         
H                     0.51048000          -0.96121000           1.59609000         
H                     2.71793000          -1.90409000           1.25915000         
H                     2.38463000          -2.10997000          -0.55526000         
H                     2.91076000           2.84554000          -0.75176000         
H                     3.49405000           1.18410000          -0.46758000         
H                     2.06023000           1.46252000          -1.49084000         
H                    -1.12513000          -1.56545000          -0.23260000         
14
DE: 109.06389250000672  DG: 113.91070250000425
C                     1.64977200          -0.56296100          -0.17349800         
C                     0.52127200           0.20297300           0.50545600         
C                    -0.19549700           1.15793700          -0.26124400         
C                    -1.89145100          -0.63745100          -0.02751900         
H                     2.52851900           0.07511800          -0.33080600         
H                     1.32226300          -0.93117600          -1.15576000         
H                    -0.36441900          -0.67015900           0.69940500         
H                     0.73716400           0.51280900           1.53514600         
H                    -0.69562700           2.00402800           0.20735900         
H                    -0.08690000           1.20247600          -1.34525300         
H                    -2.87563900          -1.08039500          -0.22217900         
H                    -1.86385000           0.11762200           0.73979900         
H                    -1.16254300          -0.76398100          -0.81112300         
H                     1.95645300          -1.42932800           0.42423900         
