11

C                     1.73817000          -0.18420000           0.86714000         
C                    -0.55533000           0.43379000          -0.06176000         
C                     0.67476000           0.74465000           0.37438000         
O                    -1.05285000          -0.83990000          -0.08415000         
O                    -1.41148000           1.40586000          -0.51492000         
H                    -0.96198000           2.26383000          -0.47874000         
H                     0.97772000           1.78960000           0.37251000         
H                     2.68489000           0.04897000           0.36880000         
H                     1.52240000          -1.23737000           0.67354000         
H                     1.87942000          -0.05050000           1.94386000         
H                    -0.43471000          -1.43584000           0.36084000         
11

C                     1.61346000           0.00988000           0.59875000         
C                    -0.85389000           0.42183000          -0.04943000         
C                     0.52157000           0.99308000           0.21769000         
O                    -1.08887000          -0.82556000           0.40048000         
O                    -1.72957000           1.07077000          -0.60574000         
H                     0.83315000           1.50147000          -0.70257000         
H                     0.42074000           1.74575000           1.00682000         
H                     2.58272000           0.51752000           0.63528000         
H                     1.68334000          -0.80886000          -0.12440000         
H                     1.42991000          -0.41971000           1.58906000         
H                    -0.35155000          -1.26716000           0.85546000         
11
DE: 44.855582500000395  DG: 47.53877249996748
C                     1.99245400           0.14627700          -0.12656700         
C                    -0.56120000          -0.01407400           0.08298500         
C                     0.71808600          -0.60591400           0.15928400         
O                    -0.82363500           1.27452600           0.08065000         
O                    -1.48924700          -0.86863400          -0.13359500         
H                    -0.39394000          -1.46719300          -0.39711100         
H                     0.74716400          -1.35340500           0.95927300         
H                     2.34073600           0.73323000           0.73657100         
H                     2.79341900          -0.55242300          -0.39612100         
H                     1.85962300           0.83686400          -0.96850300         
H                    -1.73998500           1.39806300          -0.20475800         
