12

C                    -2.09823000           0.12016000           0.12735000         
C                    -1.87581000          -1.36199000          -0.14275000         
C                     0.39811000           0.61688000          -0.04335000         
C                    -0.87044000           0.98866000           0.17179000         
H                    -1.05867000           2.03563000           0.40783000         
H                    -2.62078000           0.22355000           1.08588000         
H                    -2.76939000           0.51980000          -0.64224000         
H                    -1.40368000          -1.52354000          -1.11738000         
H                    -1.24608000          -1.81661000           0.62921000         
H                    -2.83488000          -1.89036000          -0.14513000         
H                     1.20282000           1.34379000           0.01866000         
H                     0.67492000          -0.40336000          -0.28617000         
12

C                    -2.08158000           0.95863000           0.34028000         
C                    -1.46526000          -1.45873000          -0.20708000         
C                     0.27127000           0.31166000          -0.15435000         
C                    -1.01838000          -0.03941000          -0.01214000         
H                    -1.67161000           1.96365000           0.48552000         
H                    -2.58749000           0.66588000           1.26577000         
H                    -2.82590000           1.01613000          -0.46106000         
H                    -0.94921000          -1.92381000          -1.05375000         
H                    -1.26675000          -2.04693000           0.69449000         
H                    -2.53931000          -1.50898000          -0.41521000         
H                     0.60060000           1.33605000          -0.01370000         
H                     1.03142000          -0.42154000          -0.40496000         
12
DE: 156.90574750001156  DG: 165.80871750000534
C                     0.33776400           1.17698200           0.00001400         
C                     1.51577600          -0.73224800           0.00000500         
C                    -0.59435100           0.22117600          -0.00000400         
C                    -1.52015900          -0.69254700          -0.00001800         
H                    -1.28326000           1.93316300           0.00000700         
H                     0.70009700           1.58169700           0.94232700         
H                     0.70011400           1.58171600          -0.94228400         
H                     2.45495200          -0.17007800           0.00002000         
H                     1.40124900          -1.32260000           0.91332600         
H                     1.40126600          -1.32258000          -0.91333200         
H                    -1.24578100          -1.74676100          -0.00002500         
H                    -2.56281400          -0.37474400          -0.00002300         
