11

C                     1.36663000           1.73806000          -0.30788000         
C                     0.75873000          -0.45605000          -0.02649000         
O                    -0.49414000          -0.89115000          -0.15592000         
C                     1.03987000           0.71549000           0.63184000         
O                     1.80381000          -1.22477000          -0.46484000         
H                     2.58463000          -0.84226000          -0.02878000         
H                    -0.70328000          -1.83699000          -0.64208000         
H                     2.25303000           1.47001000          -0.89314000         
H                     1.59074000           2.65110000           0.25149000         
H                     0.51955000           1.94324000          -0.97180000         
H                    -1.32739000          -0.31327000           0.22549000         
11

C                     1.74809000           1.98080000          -0.24366000         
C                     0.41933000          -1.42199000          -0.46513000         
O                    -0.86624000          -1.40252000          -0.31008000         
C                     2.05952000           1.11174000           0.82965000         
O                     1.58763000          -1.39625000          -0.59201000         
H                     2.25360000           0.23790000           0.43311000         
H                    -1.48090000          -2.19404000          -0.71515000         
H                     2.54054000           1.93578000          -0.99449000         
H                     1.66539000           3.00112000           0.13754000         
H                     0.79439000           1.68519000          -0.68783000         
H                    -1.32937000          -0.58443000           0.22596000         
11
DE: 43.096072500019744  DG: 46.872367500009204
C                    -1.78096200           0.23662000           0.26879600         
C                     1.14993800           1.25187400          -0.00251200         
O                    -0.71090200          -0.31655100          -0.50532400         
C                     0.74526400          -0.01801000          -0.04070000         
O                     1.08943200          -1.20480300           0.19358800         
H                    -0.23692000          -1.29792900          -0.19564300         
H                    -1.84630200           1.30419500           0.04245600         
H                    -2.70343100          -0.26373000          -0.03872200         
H                     0.50970000           2.05376600          -0.35474400         
H                    -1.59228400           0.08867200           1.33886000         
H                     2.15556600           1.46295200           0.34818300         
