14

C                     1.47198000           0.68231000          -0.15785000         
C                     2.23253000           0.46670000           1.14042000         
C                    -0.68682000          -0.66270000          -0.36359000         
C                     0.63461000          -0.51146000          -0.50628000         
O                    -1.52239000           0.26518000           0.18500000         
O                    -1.27926000          -1.82459000          -0.77097000         
H                    -2.21958000          -1.68153000          -0.56213000         
H                     1.18073000          -1.34587000          -0.94567000         
H                     2.18477000           0.85579000          -0.97285000         
H                     0.86970000           1.59350000          -0.08442000         
H                     1.54468000           0.33079000           1.98199000         
H                     2.87870000          -0.41565000           1.08178000         
H                     2.86387000           1.33428000           1.35732000         
H                    -0.98582000           1.00294000           0.51615000         
14

C                     1.23455000           0.97003000          -1.65261000         
C                     1.14907000          -0.35608000           1.63484000         
C                     0.28350000          -0.21027000           0.38937000         
C                     1.12891000          -0.09713000          -0.84840000         
O                    -0.56997000           0.90523000           0.51908000         
O                    -0.54789000          -1.34204000           0.26205000         
H                    -0.91782000          -1.28090000          -0.63481000         
H                     1.71006000          -0.98395000          -1.09529000         
H                     1.87937000           0.95190000          -2.52536000         
H                     0.68616000           1.88646000          -1.45128000         
H                     0.52503000          -0.49648000           2.52523000         
H                     1.80976000          -1.22749000           1.56732000         
H                     1.75667000           0.53995000           1.80404000         
H                    -0.95970000           0.83037000           1.40471000         
14
DE: 109.12915249998463  DG: 111.538125000002
C                     1.66635600          -0.86068300           0.12719700         
C                     1.21804400           1.33920900          -0.47658200         
C                    -0.62904200          -0.14436900          -0.00317500         
C                     0.31204700          -1.18161600           0.16369900         
O                    -0.93805000           0.78075800           0.94554700         
O                    -1.71337100          -0.37966600          -0.74741000         
H                    -2.42954400           0.18725900          -0.43067900         
H                    -0.06180100          -2.19895300           0.32817400         
H                     2.36205500          -1.43045400           0.76039500         
H                     2.13494800          -0.48432800          -0.77291200         
H                     2.17452200           1.60825900          -0.02104600         
H                     1.32273800           1.18842300          -1.55479600         
H                     0.45085400           2.08217500          -0.24082600         
H                    -0.14683600           0.92364700           1.47975300         
