12

C                    -0.93683000          -0.75950000           0.41577000         
C                    -0.05598000           0.48650000           0.56641000         
O                     0.73890000           0.92537000          -0.25696000         
F                    -0.25619000          -1.81499000          -0.11204000         
F                    -1.99281000          -0.53123000          -0.41639000         
F                    -1.46470000          -1.19543000           1.59358000         
O                    -0.25200000           1.18420000           1.71426000         
N                    -0.66240000           2.74528000          -2.23294000         
H                    -1.32739000           2.05017000          -2.56874000         
H                    -1.11045000           3.21721000          -1.45111000         
H                     0.11636000           2.21184000          -1.83371000         
H                     0.35949000           1.94928000           1.65525000         
12

C                    -1.45199000          -1.10631000          -0.32572000         
C                     0.28070000           1.99703000          -0.11602000         
O                     0.96957000           1.00695000          -0.27105000         
F                    -0.73469000          -2.24841000          -0.37921000         
F                    -2.75581000          -1.43332000          -0.47237000         
F                    -1.30172000          -0.57578000           0.90905000         
O                    -0.20606000           2.36601000           1.06885000         
N                    -0.13402000           2.83421000          -1.07693000         
H                    -1.14297000          -0.40533000          -1.10413000         
H                    -0.68016000           3.64316000          -0.82204000         
H                     0.20059000           2.71788000          -2.02127000         
H                     0.11265000           1.67271000           1.68444000         
12
DE: 68.22180000003897  DG: 58.58967499995998
C                    -1.24717000          -0.53171000          -0.00276000         
C                     0.23667000           1.24893000           0.11561000         
O                     1.23903000           0.59877000          -0.44960000         
F                    -0.50161000          -1.61129000          -0.40289000         
F                    -2.47742000          -0.73656000          -0.60087000         
F                    -1.47044000          -0.73811000           1.31753000         
O                     0.12847000           1.68317000           1.21905000         
N                    -0.56825000           1.85960000          -1.02089000         
H                    -1.20353000           0.97611000          -0.97518000         
H                    -1.02645000           2.71939000          -0.71738000         
H                    -0.03407000           1.96389000          -1.88491000         
H                     1.17191000           0.31779000          -1.34095000         
