13

C                     1.64453000          -1.33543000          -0.26514000         
C                     2.29044000          -1.17896000           1.09597000         
O                     0.33621000          -0.78433000          -0.25066000         
H                     1.56623000          -2.39316000          -0.53272000         
H                     2.23017000          -0.82722000          -1.03705000         
H                     1.68610000          -1.66692000           1.86764000         
H                     3.29347000          -1.61456000           1.10376000         
H                     2.36389000          -0.12157000           1.37060000         
N                     3.90064000           2.07653000          -0.70388000         
H                     3.17366000           2.23667000          -1.39941000         
H                     4.17265000           1.09928000          -0.79089000         
H                     3.45820000           2.17686000           0.20754000         
H                     0.40531000           0.14441000           0.02754000         
13

C                     1.28612000          -0.81335000          -1.65771000         
C                     3.34437000          -0.07391000           1.71865000         
O                     0.01633000          -0.56303000          -1.08482000         
H                     1.81577000          -1.56005000          -1.06099000         
H                     1.15020000          -1.19161000          -2.67348000         
H                     2.34183000          -0.34539000           1.37663000         
H                     3.95557000          -0.97940000           1.76617000         
H                     3.26897000           0.34373000           2.72641000         
N                     3.94746000           0.89184000           0.81970000         
H                     1.86050000           0.11561000          -1.69129000         
H                     4.01079000           0.50321000          -0.11928000         
H                     3.35836000           1.72070000           0.75481000         
H                     0.16514000          -0.23675000          -0.18159000         
13
DE: 126.9470149999956  DG: 118.85038250001699
C                     1.61033000          -1.23053000          -0.70444000         
C                     2.44550000          -0.27708000           1.23159000         
O                     0.21780000          -1.09533000          -0.36434000         
H                     1.82102000          -2.29946000          -0.61848000         
H                     1.74385000          -0.87511000          -1.73550000         
H                     1.39152000          -0.49395000           1.43191000         
H                     3.07691000          -1.15889000           1.32692000         
H                     2.77182000           0.49534000           1.94081000         
N                     3.13468000           0.92308000          -0.12656000         
H                     3.59939000           0.29951000          -0.77803000         
H                     2.24355000           1.21082000          -0.53916000         
H                     3.71897000           1.72679000           0.11693000         
H                    -0.32673000          -1.45394000          -1.08252000         
