12

C                    -1.04695000          -0.89819000          -0.13913000         
C                     0.23678000          -0.13739000          -0.08743000         
O                     0.77283000          -0.10788000           1.14668000         
O                     0.75012000           0.47519000          -1.00759000         
N                    -0.27709000           2.99301000           1.27686000         
H                     0.14495000           2.84999000           0.35792000         
H                    -0.28451000           2.08111000           1.73314000         
H                    -1.25459000           3.21832000           1.09381000         
H                    -1.02326000          -1.72966000           0.57071000         
H                    -1.87738000          -0.22943000           0.09849000         
H                    -1.17860000          -1.31649000          -1.14058000         
H                     1.59340000           0.42181000           1.04743000         
12

C                    -1.09777000          -0.34896000           0.08212000         
C                     0.02694000           0.65298000           0.27712000         
O                     1.15343000           0.00476000           0.77711000         
O                     0.34141000           1.25061000          -0.94070000         
N                    -0.30319000           1.69808000           1.19114000         
H                     0.70085000           2.11047000          -0.67384000         
H                    -0.57865000           1.25594000           2.06762000         
H                    -1.15516000           2.14064000           0.84782000         
H                    -1.35692000          -0.85208000           1.02021000         
H                    -1.99490000           0.12671000          -0.32922000         
H                    -0.79433000          -1.12851000          -0.62677000         
H                     1.61378000           0.70967000           1.25768000         
12
DE: 45.41845000000606  DG: 33.881234999992955
C                    -1.41758800          -0.63538400          -0.06342200         
C                    -0.09961100           0.09590200           0.08927400         
O                    -0.11424200           1.26277500          -0.67374400         
O                     0.40809600           0.23564300           1.29757000         
N                     1.11161900          -0.80119600          -0.49550400         
H                     1.39161700          -0.45074200           0.60365900         
H                     0.91681100          -1.79226500          -0.61633100         
H                     1.56367500          -0.40680600          -1.31726600         
H                    -1.70070000          -0.74512800          -1.11662000         
H                    -1.35840500          -1.61313400           0.42797800         
H                    -2.17846000          -0.03670300           0.44938900         
H                     0.33649200           1.90269700          -0.10800000         
