15

C                     0.65835000          -0.92533000          -0.04289000         
C                    -2.55836000           0.83669000          -0.14686000         
C                    -0.49288000          -0.10323000           0.45348000         
O                    -1.42126000           0.06138000          -0.52783000         
O                    -0.56544000           0.36104000           1.58358000         
N                    -2.27492000           1.72228000           0.43107000         
H                    -3.05863000           1.17341000          -1.05916000         
H                     1.29843000           2.61485000          -0.78705000         
H                     0.62960000           3.16526000          -1.32412000         
H                     2.17674000           3.13115000          -0.82426000         
H                     0.98709000           2.67018000           0.18403000         
H                     1.46766000          -0.27023000          -0.36997000         
H                     1.00645000          -1.57720000           0.76309000         
H                     0.34484000          -1.56416000          -0.87352000         
H                    -3.25298000           0.21181000           0.42200000         
15

C                     1.11561000          -0.73741000           0.02764000         
C                    -2.71380000           1.28163000          -0.53535000         
C                     0.69129000           0.55536000           0.66277000         
O                    -1.74165000           1.73144000          -1.46383000         
O                     0.00832000           0.62153000           1.67702000         
N                    -2.78011000           1.98969000           0.29428000         
H                    -3.68183000           1.21837000          -1.03777000         
H                     1.04936000           1.68577000          -0.01252000         
H                    -0.90840000           1.81213000          -0.96489000         
H                     1.79769000           1.67263000          -0.69426000         
H                     0.88246000           2.56304000           0.46789000         
H                     1.97318000          -0.58944000          -0.63459000         
H                     1.40389000          -1.44609000           0.80881000         
H                     0.28160000          -1.14398000          -0.55025000         
H                    -2.43302000           0.29334000          -0.16345000         
15
DE: 47.792282499969474  DG: 36.18792500001888
C                     1.11583000          -0.52926000          -0.04139000         
C                    -2.30958000           0.37761000          -0.14514000         
C                     0.23686000           0.64229000           0.41362000         
O                    -1.02198000           0.52179000          -0.72870000         
O                    -0.11280000           0.75677000           1.56943000         
N                     0.64672000           1.92725000          -0.35016000         
H                    -0.40778000           1.63054000          -0.90699000         
H                     1.49600000           1.87604000          -0.90840000         
H                     0.66735000           2.69852000           0.31293000         
H                     1.30871000          -0.44403000          -1.09041000         
H                     0.61013000          -1.45165000           0.15449000         
H                     2.04187000          -0.50945000           0.49429000         
H                    -3.04590000           0.30838000          -0.91841000         
H                    -2.51877000           1.22661000           0.47157000         
H                    -2.33363000          -0.51073000           0.45082000         
