12

C                    -0.95757000          -0.70446000           0.12007000         
C                     0.28160000          -0.01823000          -0.38612000         
F                    -1.95135000          -0.66600000          -0.79293000         
F                    -1.41090000          -0.13308000           1.25624000         
F                    -0.70207000          -2.00454000           0.39084000         
N                    -2.17459000           2.72107000          -0.29162000         
H                    -2.24363000           3.73454000          -0.37550000         
H                    -2.49191000           2.50010000           0.65339000         
H                    -2.89183000           2.34323000          -0.91182000         
H                     1.07754000          -0.06136000           0.36304000         
H                     0.64268000          -0.50218000          -1.29832000         
H                     0.08312000           1.03170000          -0.61336000         
12

C                    -1.18574000           0.21859000          -0.72410000         
C                     0.33792000           0.24361000          -0.66455000         
F                    -1.59329000          -0.07570000          -2.01504000         
F                    -2.15480000           0.96844000           2.68386000         
F                    -1.65563000          -0.76399000           0.13065000         
N                    -1.72922000           1.51107000          -0.31897000         
H                    -1.41216000           2.24934000          -0.98783000         
H                    -2.73052000           1.68168000           2.32181000         
H                    -2.77306000           1.46482000          -0.36101000         
H                     0.67639000           0.47065000           0.36900000         
H                     0.74353000          -0.74527000          -0.96561000         
H                     0.73767000           1.01747000          -1.35431000         
12
DE: 96.75799000000822  DG: 86.93196750002642
C                     0.35884500          -0.08568900           0.05190400         
C                     1.35105100           0.97308700          -0.37473700         
F                     0.82770000          -1.20697100          -0.48069600         
F                    -1.35288000          -0.98561900          -0.32613000         
F                     0.22946900          -0.21533100           1.34895700         
N                    -1.17103400           1.25373400          -0.14539500         
H                    -1.31416200           1.74483800           0.73111000         
H                    -1.69365800           0.30409900          -0.26397800         
H                    -1.18191900           1.89182500          -0.93342100         
H                     2.35855900           0.56941000          -0.20751000         
H                     1.22874100           1.16852500          -1.44444400         
H                     1.20170000           1.89207800           0.19382200         
