14

C                     2.16980000          -0.35258000           0.31720000         
C                     2.08752000           1.08892000          -0.14205000         
C                    -1.83831000          -0.89635000           0.21486000         
O                    -1.03470000          -0.45486000          -0.58812000         
O                     0.74738000           1.55295000          -0.07569000         
O                    -3.08503000          -1.29102000          -0.10241000         
H                     0.18164000           0.89209000          -0.53249000         
H                    -1.63976000          -1.02858000           1.29036000         
H                     1.64709000          -1.00940000          -0.38562000         
H                     1.68724000          -0.47797000           1.29189000         
H                     2.44978000           1.19412000          -1.16916000         
H                     2.69617000           1.72841000           0.50409000         
H                     3.21006000          -0.68179000           0.38747000         
H                    -3.57948000          -1.60605000           0.67857000         
14

C                     2.40877000          -0.74057000           0.49421000         
C                     1.89982000           0.68235000           0.44949000         
C                    -1.86636000          -0.24636000          -0.38789000         
O                    -1.12196000          -1.05450000          -0.90198000         
O                    -1.71503000           1.07661000          -0.45263000         
O                    -2.95098000          -0.55527000           0.32293000         
H                    -0.90448000           1.20175000          -0.98262000         
H                     0.90043000           0.74625000           0.88910000         
H                     1.75721000          -1.40110000          -0.08541000         
H                     2.43923000          -1.10521000           1.52526000         
H                     1.84660000           1.03965000          -0.58325000         
H                     2.56392000           1.34639000           1.01058000         
H                     3.41851000          -0.80073000           0.07740000         
H                    -2.97630000          -1.53137000           0.31379000         
14
DE: 101.98255500001508  DG: 92.82168249999472
C                     2.37344800          -0.45197500          -0.30262700         
C                     1.44496900           0.68369300          -0.09568200         
C                    -0.88614200          -0.21860700          -0.15602400         
O                    -1.63998600          -1.17962900          -0.26374200         
O                    -0.10980800          -0.09485700           1.12102800         
O                    -1.41113000           1.08526700          -0.33553700         
H                    -0.68235000           0.37360500           1.75058400         
H                     0.09984200          -0.21955600          -0.82783800         
H                     3.40221400          -0.07041600          -0.18702100         
H                     2.26060200          -0.91995500          -1.28461600         
H                     1.12167900           1.30034900          -0.93340300         
H                     1.57955100           1.24539100           0.82340700         
H                     2.21343300          -1.20111500           0.48174000         
H                    -2.30122000           0.92678400          -0.67083900         
