9

C                    -0.45110000           0.81367000          -0.70528000         
C                    -1.76665000           0.29432000          -0.16343000         
O                    -1.63071000          -1.06680000           0.21840000         
H                    -0.94227000          -1.11165000           0.90370000         
H                    -0.12307000           0.21393000          -1.56063000         
H                    -0.54352000           1.85702000          -1.01953000         
H                    -2.08824000           0.87305000           0.70774000         
H                    -2.54713000           0.35802000          -0.92720000         
H                     0.33510000           0.74264000           0.05354000         
9

C                    -0.44187000           0.71975000          -1.02411000         
C                    -1.77893000           0.06132000          -0.93250000         
O                    -1.85895000          -1.13848000          -0.72510000         
H                    -1.14460000          -0.28411000           2.19884000         
H                     0.14082000           0.27136000          -1.85579000         
H                    -0.56964000           1.80579000          -1.21473000         
H                    -1.53137000           0.30866000           2.18150000         
H                    -2.68426000           0.64806000          -1.04923000         
H                     0.11120000           0.58166000          -0.07159000         
9
DE: 87.55821249999691  DG: 93.38956999998771
C                    -0.15930800           0.35030500          -0.21530200         
C                     1.22200600          -0.18022000           0.05702300         
O                    -1.20232000          -0.40338100           0.01505600         
H                    -0.95206600           0.73272700           0.77082500         
H                    -0.24664300           1.41993200           0.81681400         
H                    -0.19465400           1.07267100          -1.05528700         
H                     1.23508000          -0.70762100           1.01548600         
H                     1.98765700           0.60301800           0.02093600         
H                     1.41299700          -0.91418300          -0.73954500         
