16

C                    -0.20143000          -0.18967000          -0.42003000         
C                    -0.69805000          -0.45527000           1.00775000         
C                    -1.02598000          -0.90857000          -1.48226000         
C                    -2.12793000          -0.00380000           1.27140000         
O                     1.14155000          -0.62103000          -0.53841000         
O                    -0.19444000           1.20085000          -0.67055000         
H                    -0.02268000           1.29825000          -1.62212000         
H                    -0.60074000          -1.52248000           1.24252000         
H                    -0.04458000           0.06968000           1.71700000         
H                    -1.06868000          -1.98554000          -1.28863000         
H                    -0.57278000          -0.78037000          -2.47254000         
H                    -2.25815000           1.05968000           1.04895000         
H                    -2.38045000          -0.15959000           2.32535000         
H                    -2.04369000          -0.51124000          -1.54565000         
H                    -2.84424000          -0.57444000           0.67317000         
H                     1.60707000          -0.24986000           0.22966000         
16

C                    -0.25418000          -0.90814000          -0.11538000         
C                    -0.71572000           0.39203000           0.57312000         
C                    -1.04299000          -1.26392000          -1.36972000         
C                    -2.12768000           0.31903000           1.13049000         
O                     1.11270000          -0.73494000          -0.51856000         
O                    -0.63933000           1.48753000          -0.34210000         
H                     0.17148000           1.34104000          -0.86796000         
H                    -0.29312000          -1.74623000           0.58955000         
H                    -0.02140000           0.62640000           1.38851000         
H                    -0.63967000          -2.17809000          -1.81987000         
H                    -0.95585000          -0.48243000          -2.13237000         
H                    -2.37696000           1.25146000           1.64905000         
H                    -2.23225000          -0.50889000           1.83811000         
H                    -2.10143000          -1.43036000          -1.15314000         
H                    -2.87059000           0.20331000           0.33505000         
H                     1.65191000          -0.70129000           0.29101000         
16
DE: 110.86920999997872  DG: 116.73131499998107
C                     0.63922000           0.15871500          -0.23906900         
C                    -0.64421300          -0.12836600          -0.70299800         
C                     0.93850000           1.22920100           0.75660700         
C                    -1.90439000           0.57592100          -0.27349600         
O                     1.61790700          -0.62515100          -0.65288800         
O                    -0.62109300          -1.25739300           0.99096700         
H                    -0.23921300          -2.10697300           0.74381000         
H                    -0.01531800           0.81780100          -1.54482500         
H                    -0.70158000          -0.95970400          -1.40255500         
H                     0.71059400           0.77677900           1.72882500         
H                     0.30242600           2.10403600           0.60097800         
H                    -2.63215200          -0.20423400          -0.04244600         
H                    -2.29472300           1.24424500          -1.05042600         
H                     1.99056700           1.53735600           0.70833500         
H                    -1.73776800           1.13331600           0.65204800         
H                     2.46795400          -0.29508800          -0.34463800         
