16

C                     0.07017000           0.31964000           0.03674000         
C                     1.18058000           0.60292000          -0.97603000         
C                     0.60775000          -0.58239000           1.14703000         
C                    -2.15266000          -0.58304000           0.09556000         
O                    -1.00402000          -0.27866000          -0.68275000         
O                    -0.35007000           1.54894000           0.60959000         
H                    -0.48872000           2.15369000          -0.13773000         
H                     2.02196000           1.12746000          -0.51086000         
H                     1.54312000          -0.32219000          -1.43697000         
H                     0.83766000          -1.58422000           0.76982000         
H                     1.50888000          -0.15451000           1.60033000         
H                    -1.94461000          -1.38814000           0.80506000         
H                    -2.93578000          -0.93218000          -0.58363000         
H                    -2.52669000           0.30148000           0.61893000         
H                     0.80982000           1.24130000          -1.78670000         
H                    -0.11909000          -0.69049000           1.95940000         
16

C                     0.77286000           0.56919000           0.37248000         
C                     1.63598000           0.65712000          -0.85566000         
C                     1.08807000          -0.52765000           1.35195000         
C                    -2.76378000          -0.43745000          -0.09673000         
O                    -2.16254000           0.44164000          -1.02951000         
O                    -0.15004000           1.36284000           0.56948000         
H                    -1.60278000           1.05243000          -0.50199000         
H                     2.64402000           0.96852000          -0.57308000         
H                     1.66563000          -0.31540000          -1.35351000         
H                     1.03528000          -1.49515000           0.84624000         
H                     2.08508000          -0.37226000           1.77001000         
H                    -1.99250000          -1.05213000           0.37421000         
H                    -3.46938000          -1.08495000          -0.62173000         
H                    -3.29511000           0.14182000           0.66219000         
H                     1.21322000           1.38909000          -1.54963000         
H                     0.35438000          -0.51806000           2.16308000         
16
DE: 39.757145000031784  DG: 44.57195250000311
C                    -0.65109300           0.05904700           0.14030300         
C                    -0.46285400           1.53849400          -0.09381000         
C                    -1.50856200          -0.65913600          -0.87194400         
C                     2.10678500           0.01351600          -0.25081100         
O                     0.90929600          -0.71742500          -0.10804000         
O                    -0.67334400          -0.36667400           1.36948600         
H                     0.44663600          -0.85034900           0.96535700         
H                     0.21077800           1.95085300           0.66337300         
H                    -0.10546500           1.76403400          -1.10519300         
H                    -1.23327400          -0.40496300          -1.90136400         
H                    -1.41441300          -1.73685000          -0.70827800         
H                     2.23007700           0.76475600           0.54278200         
H                     2.11777000           0.51532800          -1.22694100         
H                     2.95354000          -0.68333600          -0.21179500         
H                    -1.44680500           2.00852700           0.03996400         
H                    -2.55211400          -0.36673200          -0.69189100         
