12

C                     0.01681000           0.27264000          -0.13696000         
C                    -0.60223000           0.04495000           1.25791000         
C                    -1.41658000           0.19023000          -0.70204000         
C                    -1.77500000          -0.65382000           0.53885000         
H                    -0.88709000           0.97044000           1.77138000         
H                    -0.02161000          -0.57980000           1.94088000         
H                    -1.52051000          -0.31240000          -1.66664000         
H                    -1.93174000           1.15680000          -0.74286000         
H                    -2.76647000          -0.47953000           0.96372000         
H                    -1.62836000          -1.73085000           0.39809000         
H                     0.67019000          -0.54238000          -0.46884000         
H                     0.53159000           1.22573000          -0.28019000         
12

C                     0.22450000           0.36176000          -0.08151000         
C                    -0.39606000           0.44368000           1.28686000         
C                    -1.27330000           0.35361000           0.06706000         
C                    -2.04947000          -0.88804000          -0.21096000         
H                    -0.34990000           1.39260000           1.80928000         
H                    -0.31221000          -0.42196000           1.93411000         
H                    -2.26361000          -0.96587000          -1.28139000         
H                    -1.81559000           1.24354000          -0.23254000         
H                    -3.00244000          -0.86407000           0.32666000         
H                    -1.50855000          -1.78971000           0.09468000         
H                     0.72629000          -0.55907000          -0.35636000         
H                     0.68934000           1.25543000          -0.48250000         
12
DE: 129.90693249999524  DG: 137.99101500000552
C                    -0.77760700           0.67482000           0.30684600         
C                    -1.20262800          -0.69114600          -0.18092200         
C                     0.55283200           0.50243900          -0.32919200         
C                     1.31371700          -0.52972800           0.14148300         
H                    -1.69306000          -0.75574200          -1.15108200         
H                    -1.51943500          -1.41497700           0.56876100         
H                     1.95708000           1.14944300           0.25267900         
H                     0.70103600           0.86733400          -1.34478200         
H                     2.15324600          -0.93419200          -0.42174300         
H                     1.11708000          -0.92649900           1.13536400         
H                    -0.70314800           0.73096900           1.39922500         
H                    -1.33067700           1.54534900          -0.06771800         
