10

C                     0.44450000           0.53193000           0.84397000         
C                     1.02346000           1.52584000          -0.14410000         
C                     1.04208000          -0.84634000           0.70244000         
O                     1.89152000          -1.15792000          -0.12541000         
H                     0.62701000           0.87161000           1.86849000         
H                     0.65493000          -1.59603000           1.41396000         
H                     0.84948000           1.20226000          -1.17568000         
H                     0.56180000           2.50906000          -0.01132000         
H                     2.10435000           1.63350000          -0.00535000         
H                    -0.63693000           0.44368000           0.69910000         
10

C                     0.11986000           0.66927000           1.16496000         
C                     1.22372000           1.39418000           0.44937000         
C                     1.11889000          -0.09892000           0.35204000         
O                     0.63020000          -0.60431000          -0.89534000         
H                     0.17620000           0.58835000           2.24358000         
H                     1.84617000          -0.69623000           0.89265000         
H                     1.34984000          -0.68997000          -1.54396000         
H                     0.95744000           1.98630000          -0.41813000         
H                     2.02748000           1.80911000           1.04540000         
H                    -0.88749000           0.75990000           0.77563000         
10
DE: 87.32980250000288  DG: 89.41937750000626
C                    -0.84099200          -0.74792200          -0.20746000         
C                    -0.89486000           0.78828400           0.00277400         
C                     0.39113200          -0.27449900           0.42436600         
O                     1.48802900           0.07981200          -0.22154300         
H                    -1.53873600          -1.33741500           0.38688000         
H                     0.40456200          -0.35359200           1.52636600         
H                     0.49561200           0.99908700          -0.04727900         
H                    -0.93175000           1.31267200          -0.95701100         
H                    -1.52156300           1.19109200           0.79651800         
H                    -0.74404100          -1.04551500          -1.25121000         
