11

C                    -0.82391000          -0.84034000          -0.06404000         
C                    -1.88011000           0.25056000          -0.01181000         
C                    -3.28477000          -0.32848000          -0.01094000         
H                    -0.90280000          -1.50465000           0.80249000         
H                    -0.92858000          -1.44470000          -0.97080000         
H                    -1.73469000           0.85621000           0.88956000         
H                    -1.76035000           0.91581000          -0.87408000         
H                    -4.02643000           0.47550000           0.02701000         
H                    -3.46723000          -0.91669000          -0.91600000         
H                    -3.44144000          -0.97660000           0.85729000         
H                     0.17762000          -0.39893000          -0.06368000         
11

C                    -0.63017000          -0.99907000          -0.10761000         
C                    -1.89707000          -0.48649000          -0.72426000         
C                    -3.10167000          -0.86722000          -0.28979000         
H                    -0.83132000          -1.70788000           0.72426000         
H                    -0.03139000          -1.52119000          -0.88247000         
H                    -2.97132000           1.73190000           1.41442000         
H                    -1.82843000           0.21610000          -1.54919000         
H                    -3.53256000           1.90645000           1.01969000         
H                    -3.99637000          -0.47359000          -0.76106000         
H                    -3.20861000          -1.56732000           0.53305000         
H                    -0.04379000          -0.14399000           0.28804000         
11
DE: 114.37819000000104  DG: 120.87783499999887
C                    -1.25851000          -0.25759100          -0.01106800         
C                     0.07301700           0.42545000          -0.16650100         
C                     1.28215300          -0.32332000          -0.01631200         
H                    -1.24927900          -0.91923000           0.86177700         
H                    -2.07641700           0.46365100           0.08907900         
H                    -0.16355000           1.47666900           1.01619100         
H                     0.10652900           1.23812200          -0.89273000         
H                     0.72491000           0.75408800           0.87588700         
H                     2.20897500           0.03405800          -0.45404900         
H                     1.27568300          -1.23651100           0.57315500         
H                    -1.40680800          -0.87807900          -0.90602400         
