19

C                     0.66260000           1.64157000          -1.20208000         
C                     2.35087000          -1.83997000           0.00489000         
C                    -2.27842000          -0.33870000          -0.28702000         
C                     1.83301000          -1.34753000           1.33722000         
C                    -0.46818000           1.13978000          -0.35660000         
O                    -1.16592000           0.17751000          -1.01878000         
O                    -0.73672000           1.57256000           0.75546000         
H                     1.50095000           1.91441000          -0.55518000         
H                     1.00977000           0.85856000          -1.88210000         
H                     1.94789000          -2.83146000          -0.22167000         
H                     3.44285000          -1.90586000           0.01747000         
H                    -1.94953000          -0.76975000           0.66390000         
H                    -3.02204000           0.44691000          -0.12082000         
H                    -2.73860000          -1.13088000          -0.88406000         
H                     0.74065000          -1.29072000           1.32845000         
H                     2.22839000          -0.35190000           1.55955000         
H                     2.13521000          -2.02583000           2.14068000         
H                     0.33266000           2.50942000          -1.77708000         
H                     2.05757000          -1.15882000          -0.79852000         
19

C                     1.17739000           1.46288000          -0.75084000         
C                     2.42552000          -1.43364000          -0.11786000         
C                    -2.86112000          -0.81468000          -0.35874000         
C                     2.22109000          -0.27915000           0.84220000         
C                     1.02651000           0.55760000           0.44292000         
O                    -1.59917000          -1.42422000          -0.15873000         
O                    -0.05042000           0.45487000           1.03573000         
H                     2.11764000           2.01544000          -0.68164000         
H                     1.15626000           0.86947000          -1.66773000         
H                     1.52054000          -2.04529000          -0.19590000         
H                     3.24491000          -2.07322000           0.22386000         
H                    -3.41993000          -0.81927000           0.58017000         
H                    -2.71922000           0.21210000          -0.70536000         
H                    -3.41335000          -1.37876000          -1.11369000         
H                    -1.12793000          -0.84726000           0.48147000         
H                     3.10767000           0.36167000           0.88324000         
H                     2.05017000          -0.65889000           1.85574000         
H                     0.35526000           2.18385000          -0.76905000         
H                     2.67148000          -1.07421000          -1.12220000         
19
DE: 85.74222749999834  DG: 75.6545374999638
C                    -1.06941700           1.81215000          -0.28995700         
C                     2.26288700          -0.45952700           0.12931200         
C                    -1.11235100          -1.88980300          -0.03606900         
C                     1.35100200           0.47095000          -0.64967900         
C                    -0.38769000           0.61944700           0.30772800         
O                    -0.97142700          -0.64820100          -0.69763700         
O                    -0.24646800           0.33242100           1.45476400         
H                    -0.62321300           2.72091000           0.12850500         
H                    -0.98848100           1.80723500          -1.37969800         
H                     1.98537200          -0.43628500           1.19165400         
H                     3.31708800          -0.16514700           0.04522900         
H                    -0.85316600          -1.77668400           1.02663600         
H                    -2.15263000          -2.22627500          -0.12070700         
H                    -0.45549100          -2.64357200          -0.49032500         
H                     0.17633600          -0.23988500          -0.84828300         
H                     1.47492000           0.38433500          -1.74383300         
H                     1.54344400           1.52244900          -0.41102200         
H                    -2.12597400           1.75663600          -0.00168000         
H                     2.17836100          -1.49677300          -0.22150600         
