14

C                     0.00405000           0.86399000           0.68267000         
C                    -1.09631000           1.34219000          -0.24456000         
C                    -0.03195000          -1.96940000           0.38611000         
C                     1.08735000           0.15118000          -0.08885000         
O                     0.98915000          -1.18953000          -0.24810000         
O                     2.01541000           0.77412000          -0.59882000         
H                     0.46961000           1.72566000           1.17692000         
H                    -0.39119000           0.24961000           1.49438000         
H                    -1.85794000           1.89023000           0.31852000         
H                    -0.69601000           2.00927000          -1.01543000         
H                     0.09057000          -1.94086000           1.47229000         
H                    -1.02646000          -1.63049000           0.08659000         
H                     0.08810000          -3.00526000           0.05640000         
H                    -1.58288000           0.50511000          -0.75422000         
14

C                     0.04981000           0.32967000           0.38974000         
C                    -1.10094000           1.04463000          -0.30508000         
C                    -0.27612000          -2.01672000           0.29460000         
C                     1.26452000           1.25525000           0.42362000         
O                     0.33106000          -0.88019000          -0.30191000         
O                     2.41194000           0.93968000           0.12254000         
H                     1.06281000           2.26575000           0.82003000         
H                    -0.21100000           0.13369000           1.43751000         
H                    -1.36054000           1.97613000           0.20813000         
H                    -0.83777000           1.28975000          -1.34046000         
H                     0.12335000          -2.17757000           1.30066000         
H                    -1.36311000          -1.89964000           0.33502000         
H                    -0.04165000          -2.89287000          -0.31583000         
H                    -1.99085000           0.40824000          -0.34458000         
14
DE: 115.40415249997892  DG: 118.8284200000011
C                    -1.00329700          -0.38166100          -0.34179400         
C                    -2.43146000          -0.31440100          -0.02234200         
C                     1.99004200          -0.67491400          -0.26985400         
C                     0.02862800           0.57354600           0.25695500         
O                     0.91600200          -0.54526800           0.63250800         
O                     0.50175100           1.61437700          -0.22220700         
H                    -0.56985200           0.62493400           1.24899200         
H                    -0.65260200          -1.28736000          -0.84463100         
H                    -2.98025800          -0.52041900          -0.95598300         
H                    -2.73093600          -1.11487300           0.67375600         
H                     2.62182600           0.21938000          -0.24607500         
H                     2.56296000          -1.56360800           0.01256200         
H                     1.61545800          -0.78532000          -1.30534800         
H                    -2.71210000           0.65897500           0.39652800         
