14

C                    -0.80867000          -0.48490000          -0.10527000         
C                    -2.01156000           0.42837000           0.12230000         
C                    -3.32172000          -0.32798000          -0.02889000         
C                     0.50172000           0.26680000           0.06584000         
H                    -0.83725000          -1.32278000           0.60113000         
H                    -0.85044000          -0.91037000          -1.11469000         
H                    -1.96313000           0.86646000           1.12595000         
H                    -1.98985000           1.25747000          -0.59471000         
H                    -3.39212000          -1.13972000           0.70227000         
H                    -4.16914000           0.34626000           0.12989000         
H                    -3.41322000          -0.75886000          -1.03098000         
H                     0.57305000           1.09820000          -0.64273000         
H                     0.59268000           0.67004000           1.07947000         
H                     1.34894000          -0.40340000          -0.11017000         
14

C                    -0.84030000          -0.26321000          -0.49548000         
C                    -1.98966000           0.40266000          -0.32634000         
C                    -3.30963000          -0.28875000          -0.47067000         
C                     0.47972000           0.42729000          -0.34726000         
H                    -1.34264000          -0.96570000           2.47403000         
H                    -0.85517000          -1.32151000          -0.74238000         
H                    -1.41856000          -0.28046000           2.63508000         
H                    -1.97478000           1.46075000          -0.07851000         
H                    -3.38770000          -1.11366000           0.26881000         
H                    -4.13315000           0.43362000          -0.29111000         
H                    -3.41103000          -0.70230000          -1.49627000         
H                     0.56060000           1.25334000          -1.08502000         
H                     0.57834000           0.83905000           0.67944000         
H                     1.30326000          -0.29552000          -0.52494000         
14
DE: 119.0580850000098  DG: 126.29629750001556
C                     0.70833000           0.59515000           0.14819600         
C                    -0.70832200           0.59514600          -0.14820100         
C                    -1.52455200          -0.65311600           0.10508700         
C                     1.52454700          -0.65312400          -0.10508800         
H                     0.45964300           2.12189400          -0.17927900         
H                     1.08240000           1.14610900           1.00522300         
H                    -0.45959600           2.12192800           0.17927700         
H                    -1.08240500           1.14613700          -1.00520000         
H                    -1.24212200          -1.15931800           1.03591800         
H                    -2.58983800          -0.39435700           0.16083800         
H                    -1.41373800          -1.36649900          -0.72790200         
H                     2.58984500          -0.39440500          -0.16073600         
H                     1.41362300          -1.36654200           0.72785800         
H                     1.24217500          -1.15927600          -1.03596400         
