14

C                    -0.71943000           1.05941000           0.37458000         
C                    -2.06387000           0.45577000           0.74101000         
C                     2.57628000          -0.31532000          -0.44574000         
C                     0.32246000           0.00066000           0.10340000         
O                     1.51486000           0.60117000          -0.17544000         
O                     0.13224000          -1.20675000           0.12620000         
H                    -0.82950000           1.67573000          -0.52381000         
H                    -0.36866000           1.68755000           1.20025000         
H                    -1.98250000          -0.17329000           1.63371000         
H                    -2.79384000           1.24540000           0.94386000         
H                     2.34446000          -0.92154000          -1.32703000         
H                     3.48002000           0.26454000          -0.65254000         
H                     2.76474000          -0.95124000           0.42494000         
H                    -2.45015000          -0.16677000          -0.07289000         
14

C                    -0.84965000           0.52749000           0.84149000         
C                    -2.34016000           0.45404000           0.92411000         
C                     3.05720000           0.15341000          -0.03645000         
C                    -0.15637000          -0.54775000           0.55735000         
O                     2.36575000           1.14502000           0.13102000         
O                     0.42414000          -1.55434000           0.29555000         
H                     0.39493000           0.73483000          -1.91791000         
H                    -0.33530000           1.46331000           0.99676000         
H                    -2.62863000          -0.25413000           1.72809000         
H                    -2.75334000           1.45951000           1.15255000         
H                     0.76419000           0.14574000          -2.05192000         
H                     3.87093000           0.17612000          -0.74934000         
H                     2.85666000          -0.75143000           0.52561000         
H                    -2.74315000           0.10367000          -0.04621000         
14
DE: 100.33474000000211  DG: 106.15041000001469
C                    -1.00416300          -0.57086000          -0.28634900         
C                    -2.36861000          -0.23306500           0.23984700         
C                     2.05100900          -0.34491600           0.37941200         
C                    -0.01738300           0.40402300          -0.33069400         
O                     1.24600400          -0.41579000          -0.59812700         
O                     0.14602000           1.52756800           0.05092400         
H                     0.09702100          -1.00941000           1.18898200         
H                    -0.84557500          -1.46987200          -0.87796500         
H                    -3.06863500          -0.01101800          -0.57964200         
H                    -2.79042400          -1.06609300           0.81610200         
H                     0.86356600          -1.00633300           1.54854400         
H                     2.84148300          -1.09730600           0.42975300         
H                     2.11860300           0.58383300           0.95254700         
H                    -2.31735400           0.65088400           0.88599900         
