14

C                    -0.85366000           1.05650000           0.12137000         
C                    -1.80125000           0.33513000          -0.83025000         
C                    -2.33454000          -0.96607000          -0.24790000         
C                     0.45850000           0.34040000           0.27238000         
O                     1.22896000           0.42083000          -0.82849000         
O                     0.84199000          -0.26224000           1.26042000         
H                    -0.64434000           2.06916000          -0.24238000         
H                    -1.30547000           1.16845000           1.11358000         
H                    -2.65013000           0.99299000          -1.05002000         
H                    -1.30238000           0.12456000          -1.78325000         
H                    -1.52619000          -1.67739000          -0.05274000         
H                    -2.86873000          -0.78530000           0.69039000         
H                    -3.03246000          -1.43435000          -0.94928000         
H                     2.03761000          -0.07897000          -0.58983000         
14

C                    -0.09865000           1.47008000           0.66500000         
C                    -2.69830000          -0.05501000          -1.40388000         
C                    -3.09414000          -1.03695000          -0.58942000         
C                     0.67197000           0.46942000           0.24248000         
O                     1.79095000           0.72331000          -0.49449000         
O                     0.40138000          -0.84297000           0.50370000         
H                     0.16121000           2.49509000           0.42035000         
H                    -0.99446000           1.30763000           1.25137000         
H                    -3.00027000           0.97408000          -1.23568000         
H                    -2.05692000          -0.25784000          -2.25681000         
H                    -0.45971000          -0.88079000           0.95568000         
H                    -3.73664000          -0.83416000           0.26131000         
H                    -2.79021000          -2.06391000          -0.76825000         
H                     2.15169000          -0.16437000          -0.66736000         
14
DE: 67.10108499997929  DG: 70.61571249998735
C                    -0.32598100           1.19850000          -0.61651600         
C                     1.53189400           0.67204600           0.42920200         
C                     1.87745100          -0.66068600           0.21706600         
C                    -0.93446400           0.02143800          -0.24712700         
O                    -1.80706100           0.00461500           0.77586500         
O                    -0.51256500          -1.11645800          -0.67925600         
H                    -0.66328800           2.13421900          -0.17694500         
H                     0.15632600           1.22103300          -1.58821300         
H                     2.01871500           1.46226300          -0.13964900         
H                     1.14308700           0.98084400           1.39970900         
H                     0.59296000          -1.10163200          -0.41860400         
H                     2.60107400          -0.90514700          -0.56144300         
H                     1.80855500          -1.36165900           1.04971700         
H                    -1.99381800          -0.92297600           0.96680900         
