19

C                     0.45937000           2.04065000          -0.46520000         
C                     2.70841000          -1.49691000          -0.28178000         
C                    -2.08404000          -0.59531000          -0.50751000         
C                     1.93764000          -1.55816000           1.01745000         
C                    -0.71878000           1.23608000          -0.00673000         
O                    -0.95978000           0.20926000          -0.86607000         
O                    -1.38391000           1.50217000           0.98483000         
H                     1.05182000           2.33750000           0.40441000         
H                     1.10291000           1.44543000          -1.11871000         
H                     2.47779000          -2.36439000          -0.90714000         
H                     3.78542000          -1.48659000          -0.08970000         
H                    -1.96872000          -0.99681000           0.50439000         
H                    -3.00728000          -0.01381000          -0.59157000         
H                    -2.13692000          -1.43452000          -1.20657000         
H                     2.16065000          -0.68562000           1.63867000         
H                     0.86094000          -1.57874000           0.82595000         
H                     2.20390000          -2.45851000           1.57914000         
H                     0.11025000           2.92302000          -1.00595000         
H                     2.45104000          -0.59295000          -0.84051000         
19

C                     0.64009000           2.40453000          -0.27913000         
C                     2.29432000          -1.68094000          -0.45484000         
C                    -1.33890000          -1.15537000          -0.33468000         
C                     0.88537000          -1.81034000           0.08920000         
C                     0.12657000           1.76320000           0.97237000         
O                     0.02817000          -0.98332000          -0.69334000         
O                    -1.02240000           1.89620000           1.38411000         
H                     1.44335000           3.09793000          -0.01968000         
H                     1.02716000           1.63174000          -0.94677000         
H                     2.34884000          -2.08655000          -1.47070000         
H                     3.00778000          -2.21880000           0.17541000         
H                    -1.48307000          -0.99819000           0.73850000         
H                    -1.93332000          -0.41844000          -0.88134000         
H                    -1.67737000          -2.15684000          -0.61678000         
H                     0.85979000           1.15837000           1.53137000         
H                     0.55794000          -2.85439000           0.03871000         
H                     0.85660000          -1.47423000           1.13136000         
H                    -0.16478000           2.94691000          -0.78051000         
H                     2.59448000          -0.62958000          -0.51597000         
19
DE: 125.3531650000069  DG: 115.0402024999704
C                     0.83024900          -1.73647200          -0.68038700         
C                    -2.44488600          -0.42187200          -0.11513000         
C                     0.82905800           1.86381100          -0.45682100         
C                    -1.49034100           0.42855300           0.65171300         
C                     0.76724800          -0.59489700           0.31679600         
O                     0.15099800           0.64500600          -0.57222900         
O                     1.70410700          -0.28012700           1.03242300         
H                    -0.12624500          -1.88544600          -1.19124500         
H                     1.59481500          -1.46772800          -1.42077300         
H                    -2.43991700          -1.46604300           0.21357400         
H                    -2.21273400          -0.36847300          -1.18386200         
H                     1.63013400           1.77554700           0.29129000         
H                     1.25469300           2.16721600          -1.42389500         
H                     0.12779900           2.65524700          -0.13469800         
H                    -0.31650900          -0.68124000           0.87099300         
H                    -1.51767300           1.48718400           0.39315100         
H                    -1.46000100           0.29119700           1.73623400         
H                     1.13329100          -2.65231400          -0.16022700         
H                    -3.45646400          -0.00891600           0.03087700         
