14

C                    -0.68283000          -1.03895000           0.11995000         
C                    -1.95239000          -0.52208000           0.77348000         
C                     2.72547000           0.26742000          -0.20432000         
C                     0.43322000          -0.02332000           0.17221000         
O                     1.59930000          -0.61066000          -0.22166000         
O                     0.31250000           1.14807000           0.50080000         
H                    -0.35597000          -1.94355000           0.64399000         
H                    -0.87898000          -1.28422000          -0.92887000         
H                    -2.73240000          -1.28928000           0.75122000         
H                    -1.77233000          -0.24584000           1.81780000         
H                     3.60371000          -0.30188000          -0.52109000         
H                     2.57715000           1.09473000          -0.90528000         
H                     2.90364000           0.64297000           0.80827000         
H                    -2.32988000           0.36450000           0.25330000         
14

C                    -1.27944000          -0.21139000          -0.01771000         
C                    -2.48373000          -0.54753000           0.79089000         
C                     3.07829000          -0.24045000          -0.24433000         
C                    -0.47496000           0.77536000           0.24139000         
O                     2.35126000          -1.43150000           0.00732000         
O                     0.26954000           1.65036000           0.48245000         
H                     1.66590000          -1.19994000           0.65658000         
H                    -1.09001000          -0.79782000          -0.91012000         
H                    -2.75436000          -1.59730000           0.64160000         
H                    -2.30183000          -0.39555000           1.85972000         
H                     4.00916000          -0.49336000          -0.75670000         
H                     2.48444000           0.42068000          -0.87939000         
H                     3.30846000           0.25462000           0.70259000         
H                    -3.33252000           0.07160000           0.48551000         
14
DE: 73.16963749999545  DG: 77.63367249999632
C                    -1.12781500          -0.58458800          -0.17537900         
C                    -2.50009400          -0.18478900           0.30388300         
C                     2.29580600          -0.22852500           0.36524000         
C                    -0.11452900           0.38312800          -0.28113500         
O                     1.14301500          -0.66851200          -0.33563800         
O                     0.14832100           1.51709300          -0.10382500         
H                     0.20507500          -1.14869600           0.25093700         
H                    -1.05335700          -1.36563700          -0.93710900         
H                    -2.42780400           0.59811200           1.06842100         
H                    -3.13517300           0.19573300          -0.50872700         
H                     3.15926900          -0.79179500          -0.00144100         
H                     2.43171200           0.84199000           0.16967100         
H                     2.17978100          -0.38359600           1.44691300         
H                    -3.01040100          -1.04610900           0.75137800         
