14

C                    -0.75585000           0.95890000          -0.58774000         
C                    -1.74157000          -0.09048000          -1.08910000         
C                    -2.41435000          -0.84935000           0.04584000         
C                     0.46808000           0.34587000           0.03153000         
O                     1.26643000          -0.25628000          -0.86942000         
O                     0.76474000           0.36539000           1.21411000         
H                    -0.42905000           1.60179000          -1.41323000         
H                    -1.22817000           1.61536000           0.15195000         
H                    -2.51612000           0.40789000          -1.68357000         
H                    -1.23876000          -0.80512000          -1.75082000         
H                    -2.95053000          -0.16502000           0.71112000         
H                    -3.13773000          -1.56549000          -0.35686000         
H                    -1.68478000          -1.40738000           0.64073000         
H                     2.01195000          -0.60019000          -0.33403000         
14

C                    -0.29832000           1.62087000          -0.18608000         
C                    -1.48958000          -0.55007000          -1.02184000         
C                    -2.33227000          -1.03929000           0.14539000         
C                    -0.24484000           0.18065000          -0.62112000         
O                     0.96310000          -0.25865000          -1.24438000         
O                    -0.11824000           0.55285000           0.75285000         
H                     0.55394000           2.25263000          -0.40060000         
H                    -1.25255000           2.13131000          -0.18782000         
H                    -2.09882000           0.09823000          -1.66253000         
H                    -1.21584000          -1.41793000          -1.63395000         
H                    -2.69560000          -0.20275000           0.75111000         
H                    -3.20256000          -1.59278000          -0.22109000         
H                    -1.75436000          -1.70429000           0.79555000         
H                     1.60015000          -0.51489000          -0.55500000         
14
DE: 116.96725499999175  DG: 119.82614499997894
C                     0.45769900           1.25738400          -0.68997000         
C                    -0.82269800          -0.68613400          -0.44668300         
C                    -2.09169100          -0.06822600           0.09948400         
C                     0.56819600           0.05910000           0.08121900         
O                     1.59814600          -0.79023500          -0.36135000         
O                     0.54069100           0.33927000           1.35536900         
H                     1.20393500           1.59464000          -1.41660700         
H                    -0.42798500           1.86551800          -0.51488000         
H                    -0.83157000          -0.87360700          -1.52802800         
H                    -0.58960100          -1.63406200           0.05838500         
H                    -2.90466800          -0.80569400           0.09833700         
H                    -1.90546100           0.24561400           1.13399100         
H                    -2.43757400           0.79388200          -0.48668200         
H                     2.11319900          -0.95132000           0.43902900         
