9

C                     0.68593000          -0.08207000           0.31017000         
C                    -0.09124000          -0.90789000           1.01619000         
H                    -0.55732000          -0.58555000           1.94253000         
H                    -0.26473000          -1.92986000           0.69172000         
O                    -2.72160000           0.36469000          -1.10856000         
H                    -1.86912000          -0.09822000          -1.09002000         
H                    -2.71370000           0.87618000          -0.28538000         
H                     0.87334000           0.93452000           0.64308000         
H                     1.16643000          -0.41030000          -0.60692000         
9

C                     0.57407000          -0.15579000          -0.03971000         
C                    -0.38218000          -1.06498000          -0.24768000         
H                    -1.88318000           0.57001000           1.99920000         
H                    -0.21006000          -2.09694000           0.04046000         
O                    -1.56368000          -0.72801000          -0.81041000         
H                    -1.76862000           0.17778000          -1.08459000         
H                    -2.19905000           1.02705000           1.56039000         
H                     0.42596000           0.88279000          -0.31883000         
H                     1.51475000          -0.45052000           0.41397000         
9
DE: 101.19566999998646  DG: 94.79642499998484
C                    -1.27493000          -0.26536400           0.01687800         
C                    -0.16351600           0.50877600          -0.04580600         
H                     0.47407400           1.05744100           1.16911300         
H                    -0.12283800           1.38622100          -0.68630500         
O                     1.19205100          -0.25254800          -0.16557700         
H                     0.97380200          -1.19530400          -0.05625800         
H                     1.29642500           0.34263600           0.81785300         
H                    -2.20226600           0.11365100          -0.40503900         
H                    -1.32492600          -1.14473100           0.65881200         
