11

C                    -0.26212000           0.91728000           1.27994000         
C                     0.66236000           0.20231000           0.32060000         
H                    -0.32563000           1.98090000           1.03170000         
H                    -1.26895000           0.49198000           1.23355000         
H                     0.10342000           0.82436000           2.30695000         
O                    -2.66973000          -0.70014000          -1.46770000         
H                    -2.79077000          -0.03922000          -0.76969000         
H                    -1.75854000          -1.00624000          -1.34451000         
H                     1.67216000           0.61952000           0.37704000         
H                     0.71584000          -0.86372000           0.56084000         
H                     0.30475000           0.30636000          -0.70800000         
11

C                    -0.63892000          -0.40635000           0.71269000         
C                     0.76189000          -0.18321000           0.15760000         
H                    -1.79931000           2.97525000           0.10278000         
H                    -0.57255000          -0.99093000           1.65432000         
H                    -1.12050000           0.56616000           0.96041000         
O                    -1.42065000          -1.12179000          -0.20453000         
H                    -2.44849000           2.74740000           0.26993000         
H                    -1.71068000          -0.47308000          -0.89794000         
H                     1.37572000           0.36788000           0.90085000         
H                     1.24550000          -1.15973000          -0.05688000         
H                     0.71091000           0.41200000          -0.77863000         
11
DE: 121.50909999999236  DG: 115.96890249997983
C                    -0.29254900           0.75068700          -0.04451800         
C                    -1.26615500          -0.39483600           0.02380700         
H                     1.45823400           1.58665200           0.38187400         
H                    -0.15633200           1.20636600          -1.02255600         
H                    -0.43296100           1.48529200           0.74271800         
O                     1.26601700          -0.49538000          -0.11871000         
H                     1.67838600           0.46304100           0.07831700         
H                     1.29741200          -0.92393000           0.74982800         
H                    -2.27300300           0.04375400          -0.06987000         
H                    -1.11590500          -1.12276300          -0.77760800         
H                    -1.23174400          -0.91048000           0.99124000         
