8

C                    -0.47977000           1.10372000          -0.22911000         
C                     1.58876000           0.00285000          -0.29442000         
O                     0.80597000           0.89487000           0.35359000         
O                     2.71803000          -0.29815000           0.05908000         
H                     1.09970000          -0.42923000          -1.18135000         
H                    -1.00195000           1.86366000           0.35847000         
H                    -0.37941000           1.46504000          -1.25735000         
H                    -1.06284000           0.17804000          -0.20192000         
8

C                    -0.85064000           1.24352000          -0.29609000         
C                     3.20186000          -1.25043000          -0.87175000         
O                     0.40612000           1.10201000           0.33906000         
O                     3.14461000          -0.59931000          -0.04104000         
H                     0.90717000           0.43388000          -0.15934000         
H                    -1.43781000           1.99012000           0.24366000         
H                    -0.70426000           1.57415000          -1.32726000         
H                    -1.37845000           0.28684000          -0.28003000         
8
DE: 72.96946500000146  DG: 78.67845999999801
C                     1.48841000          -0.43878900           0.07429400         
C                    -1.06156200           0.45848300           0.14115400         
O                     0.64063500           0.65135600          -0.21244300         
O                    -1.57271200          -0.54723000          -0.07140600         
H                    -0.26337800           1.26217700           0.54392800         
H                     1.90921000          -0.83516700          -0.85911000         
H                     0.93539600          -1.25605300           0.56828400         
H                     2.31430500          -0.12213000           0.72500000         
