12

C                    -1.26200000           1.69853000           0.27830000         
C                     0.70321000           0.14840000           0.24818000         
C                    -0.49478000           0.49916000           0.73153000         
H                    -0.94908000          -0.10362000           1.51493000         
H                    -2.21771000           1.38837000          -0.15487000         
H                    -1.46617000           2.35337000           1.13093000         
H                    -0.71669000           2.27813000          -0.47330000         
O                    -1.69427000          -2.35402000          -1.11202000         
H                    -2.06334000          -2.26465000          -0.22063000         
H                    -1.09123000          -1.59666000          -1.18113000         
H                     1.20142000           0.72992000          -0.52238000         
H                     1.22304000          -0.72752000           0.62585000         
12

C                    -1.25392000           1.55000000          -0.09428000         
C                     0.75096000           0.12193000          -0.02792000         
C                    -0.53420000           0.26613000          -0.37917000         
H                    -1.85840000          -1.41170000           1.88519000         
H                    -2.30385000           1.48966000          -0.45070000         
H                    -1.25995000           1.74591000           0.99894000         
H                    -0.74865000           2.39085000          -0.61500000         
O                    -1.19919000          -0.73977000          -0.99255000         
H                    -2.20344000          -1.89747000           1.50281000         
H                    -0.78422000          -1.59028000          -1.19714000         
H                     1.28666000           0.92816000           0.46469000         
H                     1.28051000          -0.80400000          -0.22946000         
12
DE: 99.32697499999612  DG: 93.27787499998436
C                    -1.43912100          -0.29536100          -0.09035200         
C                     0.43311200           1.39579500          -0.05889100         
C                    -0.03843300           0.15122100           0.21207200         
H                     0.19470200          -0.42814600           1.55740100         
H                    -1.59397800          -0.30426500          -1.17622900         
H                    -1.62272000          -1.29977700           0.30279900         
H                    -2.14720900           0.39996300           0.37420800         
O                     0.95223600          -1.01083700          -0.21683400         
H                     0.87024700          -1.09931600           0.92514900         
H                     1.75952300          -0.55494100          -0.51116800         
H                    -0.27909200           2.19290800          -0.25916500         
H                     1.46728800           1.67034400           0.14469600         
