13

C                     0.36155000           1.35288000          -1.05083000         
C                     0.06542000          -0.02713000          -0.55120000         
C                    -1.16550000          -0.51931000          -0.39660000         
O                     1.14978000          -0.81273000          -0.21260000         
H                     1.96108000          -0.36413000          -0.51862000         
H                    -1.31613000          -1.52966000          -0.02860000         
H                    -0.55187000           1.93633000          -1.20502000         
H                     0.98373000           1.88985000          -0.32746000         
H                     0.89969000           1.30387000          -2.00243000         
O                     1.60953000           0.11084000           2.46061000         
H                     0.75099000           0.47645000           2.72357000         
H                     1.36139000          -0.49306000           1.73439000         
H                    -2.04845000           0.06100000          -0.64241000         
13

C                     0.46372000           2.44099000          -0.65647000         
C                     0.30190000          -1.11014000           0.43845000         
C                    -0.98080000          -1.13556000           0.08759000         
O                     1.25736000          -1.65837000          -0.36596000         
H                     2.03396000          -1.07851000          -0.29128000         
H                    -1.29397000          -1.59706000          -0.84153000         
H                    -0.41110000           2.83676000          -1.17666000         
H                     1.24873000           3.19958000          -0.63120000         
H                     0.83037000           1.55728000          -1.18305000         
O                     0.69572000          -0.52266000           1.60491000         
H                     0.18708000           2.17104000           0.36493000         
H                     1.46722000          -1.02761000           1.91192000         
H                    -1.73899000          -0.69053000           0.72127000         
13
DE: 105.97408249999617  DG: 98.51122500000471
C                    -1.55056600          -0.59545600          -0.40824200         
C                     0.32076000          -0.07677000          -0.04032200         
C                     1.28215600          -0.17868200          -0.99112400         
O                     0.43134000          -0.63378500           1.19375200         
H                     1.38036800          -0.68187300           1.37197700         
H                     1.87684600          -1.08941300          -1.01837700         
H                    -1.70383700          -0.43455400          -1.48102100         
H                    -1.32652900          -1.64723200          -0.21595700         
H                    -2.47968800          -0.36384500           0.14799000         
O                    -0.20568500           1.42931100           0.12930200         
H                    -1.11397700           0.80335000           0.05425500         
H                    -0.01862500           1.67634200           1.04914100         
H                     1.26610600           0.47847000          -1.85431600         
