10

C                    -0.42122000           0.03447000          -0.18428000         
C                    -0.52146000           1.31956000           0.61436000         
C                    -1.72589000          -0.72160000          -0.23839000         
O                    -2.76273000          -0.36613000           0.31168000         
H                    -0.11995000           0.25481000          -1.21337000         
H                    -1.69702000          -1.65700000          -0.82353000         
H                    -1.26413000           1.99609000           0.17858000         
H                    -0.81920000           1.11794000           1.64868000         
H                     0.44355000           1.83527000           0.63033000         
H                     0.33004000          -0.62673000           0.25923000         
10

C                    -0.00648000          -0.09901000          -0.37797000         
C                    -0.35734000           0.73421000           0.82151000         
C                    -1.42807000          -0.02301000           0.09353000         
O                    -2.29922000           0.76834000          -0.72200000         
H                     0.24987000           0.41256000          -1.29836000         
H                    -1.84149000          -0.90546000           0.57140000         
H                    -3.02812000           1.14031000          -0.19639000         
H                    -0.05312000           0.37287000           1.79636000         
H                    -0.32474000           1.81179000           0.71283000         
H                     0.53062000          -1.02580000          -0.21761000         
10
DE: 87.32980250000288  DG: 89.41937750000626
C                    -0.84099200          -0.74792200          -0.20746000         
C                    -0.89486000           0.78828400           0.00277400         
C                     0.39113200          -0.27449900           0.42436600         
O                     1.48802900           0.07981200          -0.22154300         
H                    -1.53873600          -1.33741500           0.38688000         
H                     0.40456200          -0.35359200           1.52636600         
H                     0.49561200           0.99908700          -0.04727900         
H                    -0.93175000           1.31267200          -0.95701100         
H                    -1.52156300           1.19109200           0.79651800         
H                    -0.74404100          -1.04551500          -1.25121000         
