14

C                    -0.46666000           0.25958000          -0.59944000         
C                     0.03125000           1.67750000          -0.34051000         
C                     1.55718000          -0.90752000           0.03269000         
C                    -1.37156000          -0.27018000           0.50762000         
O                     1.62954000          -0.44939000           1.16018000         
O                     0.61216000          -0.65222000          -0.90293000         
H                    -1.06536000           0.29182000          -1.51778000         
H                     2.28420000          -1.61967000          -0.38801000         
H                    -0.86471000          -0.29231000           1.47681000         
H                    -0.80541000           2.38282000          -0.31031000         
H                     0.56756000           1.75685000           0.60969000         
H                     0.72467000           1.99021000          -1.12822000         
H                    -1.68418000          -1.29627000           0.28696000         
H                    -2.26556000           0.35297000           0.61106000         
14

C                    -0.87326000           0.81092000          -0.33716000         
C                     0.59258000           1.06423000           0.00872000         
C                     1.69999000          -0.92306000          -0.63314000         
C                    -1.61227000           0.05363000           0.75617000         
O                     1.26816000          -0.14380000           0.38829000         
O                     1.56937000          -0.70621000          -1.82572000         
H                    -0.94291000           0.23156000          -1.26454000         
H                     2.19909000          -1.81123000          -0.21461000         
H                    -1.52453000           0.56580000           1.71930000         
H                    -1.36944000           1.77118000          -0.51761000         
H                     0.65706000           1.74447000           0.86527000         
H                     1.11339000           1.55502000          -0.82247000         
H                    -1.21914000          -0.96192000           0.86826000         
H                    -2.67510000          -0.02638000           0.50723000         
14
DE: 75.52527249996913  DG: 79.8198825000054
C                     1.10165000           0.16474600           0.48305600         
C                     0.45896900           1.35754000           0.13397800         
C                    -1.63421100          -0.46576200          -0.03181500         
C                     1.91279600          -0.65410100          -0.46966200         
O                    -1.54991600           0.72349800          -0.41192700         
O                    -0.68804000          -1.20127200           0.32580200         
H                     1.06006200          -0.13770000           1.52721300         
H                    -2.66034400          -0.91099400          -0.00450300         
H                     2.93657600          -0.79481600          -0.10383600         
H                     1.72060600           1.40224300           0.56547600         
H                     0.52906100           1.73575400          -0.88146600         
H                    -0.06047200           1.94080600           0.88716700         
H                     1.93048500          -0.20149000          -1.46696500         
H                     1.41245300          -1.62615300          -0.52742100         
