12

C                     1.54948000          -0.43114000           0.51001000         
C                    -2.50105000          -0.34488000          -0.29383000         
C                     1.25687000           1.02159000           0.72663000         
O                    -1.68746000          -0.31580000           0.61207000         
O                    -3.72960000          -0.88289000          -0.19285000         
O                     2.00214000           1.92117000           0.34814000         
H                     1.43210000          -0.96416000           1.45631000         
H                    -2.32560000           0.06284000          -1.30149000         
H                     0.29887000           1.25120000           1.22157000         
H                     2.57375000          -0.55673000           0.15071000         
H                     0.85325000          -0.83354000          -0.22889000         
H                    -4.23285000          -0.80565000          -1.02636000         
12

C                     1.05200000          -0.56448000           0.48110000         
C                    -1.44137000          -0.33188000           0.39958000         
C                    -0.10349000           0.40532000           0.31101000         
O                    -1.76040000          -1.19874000           1.19508000         
O                    -2.32919000           0.11958000          -0.51893000         
O                     0.06435000           1.07331000          -0.93910000         
H                     1.00224000          -1.08553000           1.44222000         
H                    -0.83555000           1.32762000          -1.22502000         
H                    -0.09056000           1.16568000           1.09861000         
H                     2.01041000          -0.03869000           0.41531000         
H                     1.04698000          -1.31772000          -0.31520000         
H                    -3.12571000          -0.43236000          -0.36266000         
12
DE: 83.59680499999328  DG: 75.29247000002186
C                    -1.54624200           1.03926400           0.49513400         
C                     0.97959500          -0.03003000          -0.20247000         
C                    -1.07425600          -0.35948700           0.32072300         
O                     1.38441100           0.88291300          -0.86665800         
O                     1.71354000          -0.60421600           0.76801100         
O                    -1.43547000          -1.04333700          -0.72051200         
H                    -1.05045900           1.54830400           1.32732000         
H                    -0.20260500          -0.82027200          -0.71600300         
H                    -0.73817600          -0.88946600           1.22839500         
H                    -2.62647800           0.95661300           0.69962000         
H                    -1.41636100           1.58454900          -0.44542300         
H                     2.57964100          -0.16109300           0.77904600         
