10

C                     0.50179000          -0.29351000          -0.44927000         
C                    -1.34776000          -1.06893000           0.75628000         
C                     0.30972000           1.18495000          -0.72546000         
O                    -0.04699000          -0.69087000           0.80375000         
O                    -2.03569000          -1.17677000          -0.24443000         
O                    -0.20062000           1.98301000           0.05541000         
H                     1.57824000          -0.48731000          -0.41714000         
H                    -1.69460000          -1.29110000           1.77815000         
H                     0.69795000           1.52697000          -1.70022000         
H                     0.08926000          -0.86825000          -1.28588000         
10

C                     1.22656000          -0.49171000          -0.84209000         
C                    -2.01650000          -0.17239000           0.51815000         
C                     0.15787000           0.39489000          -0.26229000         
O                     0.92753000          -0.49309000           0.55881000         
O                    -3.20084000          -0.45838000           0.42601000         
O                    -1.19374000          -0.00198000          -0.54267000         
H                     2.15746000          -0.03806000          -1.15575000         
H                    -1.50025000          -0.02087000           1.47864000         
H                     0.36979000           1.45623000          -0.18882000         
H                     0.92332000          -1.35643000          -1.41889000         
10
DE: 63.9485249999845  DG: 63.47727249999721
C                     1.06402700          -0.83855800          -0.49081500         
C                    -1.04434000           0.12992000           0.37278600         
C                     1.11915700           0.55577300          -0.04294100         
O                     0.37691000          -0.71236700           0.77260300         
O                    -1.75415100          -0.38585700          -0.40311100         
O                     0.13192600           1.33594300          -0.25898200         
H                     1.95249800          -1.46382500          -0.39761600         
H                    -1.23328300           0.64772500           1.31841400         
H                     2.01411900           0.91624200           0.48155600         
H                     0.39612600          -1.08469800          -1.32061300         
