14

C                     0.43289000           0.00014000           0.76598000         
C                     0.37227000           1.51558000           0.60752000         
C                    -1.75555000          -0.50548000          -0.13553000         
C                     1.26631000          -0.68312000          -0.31277000         
O                    -1.58095000           0.02737000          -1.21812000         
O                    -0.88020000          -0.58866000           0.89424000         
H                     0.92013000          -0.20364000           1.72718000         
H                    -2.68985000          -1.00999000           0.15640000         
H                     1.25243000          -1.76952000          -0.17570000         
H                    -0.03032000           1.81052000          -0.36599000         
H                    -0.27878000           1.95480000           1.37065000         
H                     1.36991000           1.95597000           0.70294000         
H                     2.30502000          -0.33945000          -0.27753000         
H                     0.88170000          -0.48263000          -1.31708000         
14

C                     1.26198000           0.32471000           0.92199000         
C                     1.02663000           1.64196000           0.88167000         
C                    -2.50130000          -0.66283000          -0.17605000         
C                     1.73597000          -0.48379000          -0.24123000         
O                    -1.85330000           0.28227000          -0.87398000         
O                    -2.15101000          -0.99843000           0.93910000         
H                     1.10390000          -0.21406000           1.85533000         
H                    -3.35395000          -1.06491000          -0.74257000         
H                     1.07511000          -1.34352000          -0.38942000         
H                    -1.12399000           0.56295000          -0.28010000         
H                     0.68809000           2.16986000           1.76909000         
H                     1.18181000           2.22569000          -0.02075000         
H                     2.74753000          -0.85523000          -0.05230000         
H                     1.74754000           0.09731000          -1.16868000         
14
DE: 64.53084499997672  DG: 71.00538999996658
C                    -1.45980400          -0.01135500          -0.37584300         
C                    -1.59497500           1.18719900           0.34959400         
C                     1.65100900          -0.24556000          -0.24242000         
C                    -1.36800700          -1.34273900           0.26936900         
O                     2.51268200           0.11993700           0.51633100         
O                     0.58464700           0.42570800          -0.58342300         
H                    -1.58373600           0.01198400          -1.45778100         
H                     1.69519900          -1.24901700          -0.73358800         
H                    -0.94037000          -1.26346900           1.27512100         
H                    -0.34573000           1.22990500           0.15109300         
H                    -2.02962100           2.04872400          -0.15744300         
H                    -1.76145900           1.11080900           1.42556400         
H                    -0.78734000          -2.04780000          -0.33321600         
H                    -2.39491600          -1.73156900           0.36279400         
