12

C                     1.15707000          -0.64473000          -0.43207000         
C                    -1.21761000           2.28796000           0.04314000         
C                    -0.11684000          -1.42100000          -0.56442000         
O                    -0.77652000           2.05527000          -1.20767000         
O                    -1.26482000           1.43372000           0.90986000         
O                    -0.14725000          -2.63545000          -0.74479000         
H                     1.26639000           0.01529000          -1.29554000         
H                    -1.52075000           3.33805000           0.17440000         
H                    -1.04673000          -0.83030000          -0.52807000         
H                     2.00849000          -1.32814000          -0.38582000         
H                     1.12417000          -0.05153000           0.48431000         
H                    -0.81441000           2.85997000          -1.76133000         
12

C                     1.55090000          -0.75622000          -0.21698000         
C                    -1.42534000           1.33697000          -0.55966000         
C                     0.08912000          -0.42738000          -0.26868000         
O                    -1.50583000           2.39746000          -1.49930000         
O                    -0.07386000           0.90291000          -0.48811000         
O                    -0.80441000          -1.24281000          -0.10371000         
H                     2.04633000          -0.40153000          -1.12451000         
H                    -1.74168000           1.71055000           0.41992000         
H                    -2.11360000           0.55263000          -0.88899000         
H                     1.67710000          -1.84100000          -0.15862000         
H                     1.99886000          -0.29928000           0.66884000         
H                    -1.04618000           3.14690000          -1.08818000         
12
DE: 62.78137500000639  DG: 50.46731499999282
C                     1.33684900           1.28907900          -0.08302600         
C                    -1.09159200          -0.45257700          -0.08904100         
C                     0.93157100          -0.15954800          -0.16229000         
O                    -2.19518700           0.25108100          -0.35561700         
O                    -0.39909000          -0.15215500           0.95586800         
O                     1.59253300          -1.14476500          -0.16257700         
H                     2.06473700           1.47657500          -0.87965800         
H                    -1.16362600          -1.49002700          -0.44731200         
H                    -0.07347700          -0.12593800          -1.07378900         
H                     1.81226800           1.44667700           0.89127100         
H                     0.47853300           1.95680000          -0.18900600         
H                    -2.16545900           1.04089700           0.20324200         
