12

C                    -1.56396000           0.40527000          -0.24269000         
C                     1.88485000          -1.49417000          -0.03737000         
C                    -1.05652000           1.81164000          -0.17212000         
O                     1.08705000          -1.41037000          -0.95472000         
O                     2.98301000          -2.27260000          -0.05944000         
O                    -0.32808000           2.22197000           0.72677000         
H                    -1.28648000          -0.02485000          -1.20742000         
H                     1.80005000          -0.95156000           0.91696000         
H                    -1.39802000           2.48240000          -0.97892000         
H                    -2.65146000           0.40932000          -0.14248000         
H                    -1.12520000          -0.18926000           0.56238000         
H                     3.49558000          -2.19970000           0.76854000         
12

C                    -1.41265000           0.01374000          -0.05242000         
C                     1.50443000          -0.75289000          -0.55258000         
C                    -0.12405000           0.78094000           0.18455000         
O                     1.15379000          -0.71135000          -1.71489000         
O                     2.53613000          -1.47025000          -0.08332000         
O                     0.96272000          -0.10237000           0.49946000         
H                    -1.38667000          -0.50700000          -1.01477000         
H                    -0.25012000           1.43789000           1.05169000         
H                     0.13012000           1.41999000          -0.66919000         
H                    -2.26950000           0.69368000          -0.06065000         
H                    -1.56479000          -0.74584000           0.72067000         
H                     2.56128000          -1.26863000           0.87103000         
12
DE: 76.22618999998295  DG: 64.47688000000596
C                     2.07716300           0.32528500          -0.23685800         
C                    -0.78205200           0.26311900          -0.13205200         
C                     0.94222200          -0.64675900          -0.16275300         
O                    -0.85596600           1.41040200           0.19869400         
O                    -1.75992000          -0.61532700          -0.43871500         
O                     0.21815800          -0.68679600           0.91426900         
H                     2.82537500          -0.01668100           0.49254700         
H                     0.03361800           0.00920500          -1.08545400         
H                     1.01610800          -1.56023200          -0.78182800         
H                     1.71549400           1.30939300           0.08656800         
H                     2.53040900           0.36925300          -1.23283100         
H                    -2.36316700          -0.62703800           0.31699100         
