11

C                     0.19659000          -0.75723000           0.42305000         
C                     0.78128000          -1.80263000          -0.51008000         
C                     0.98973000           0.54323000           0.37814000         
O                    -1.15596000          -0.52567000           0.04439000         
O                     2.16904000           0.63474000           0.04924000         
H                     0.20322000          -1.12337000           1.45499000         
H                     0.45379000           1.42763000           0.76316000         
H                     0.77283000          -1.44941000          -1.54756000         
H                     1.81343000          -2.04838000          -0.24139000         
H                     0.18412000          -2.72031000          -0.48198000         
H                    -1.60828000          -0.09240000           0.78845000         
11

C                    -0.24326000          -0.87884000           0.61086000         
C                     0.55963000          -1.71584000          -0.36184000         
C                     2.86059000           1.82404000          -0.44821000         
O                    -1.57771000          -0.77230000           0.13797000         
O                     3.06956000           0.87011000          -0.04359000         
H                    -0.25568000          -1.34584000           1.60015000         
H                     0.18017000           0.12602000           0.69546000         
H                     0.55478000          -1.26105000          -1.35796000         
H                     1.59521000          -1.81951000          -0.02619000         
H                     0.12080000          -2.71365000          -0.46570000         
H                    -2.06450000          -0.22706000           0.77926000         
11
DE: 86.0898624999767  DG: 89.67665249998092
C                     0.67015300           0.17713400           0.51014900         
C                     1.46523000          -0.74955200          -0.37854400         
C                    -1.16965000          -0.72676200           0.43147000         
O                     0.33219200           1.37396400          -0.04444300         
O                    -1.70507100          -0.09932300          -0.41254100         
H                     1.08537800           0.30787100           1.51855700         
H                    -0.44110100          -0.98059800           1.20664200         
H                     2.39741300          -0.26616600          -0.70382200         
H                     0.89038900          -0.99620400          -1.28514400         
H                     1.72211500          -1.68587400           0.13601100         
H                    -0.46556500           1.21891800          -0.59482400         
