11

C                    -0.23963000           0.04544000          -0.22094000         
C                    -0.44228000           1.39588000           0.44528000         
C                    -1.48000000          -0.83340000          -0.15458000         
O                     0.85023000          -0.63512000           0.39034000         
O                    -2.53151000          -0.51814000           0.39467000         
H                     0.00338000           0.18699000          -1.27889000         
H                    -1.38180000          -1.81010000          -0.65946000         
H                     0.47319000           1.99387000           0.38589000         
H                    -1.25847000           1.95327000          -0.02494000         
H                    -0.67721000           1.27964000           1.50937000         
H                     0.69121000          -0.64153000           1.35186000         
11

C                     0.36901000           0.51937000          -0.18793000         
C                    -1.01303000           0.72650000           0.40195000         
C                    -1.92021000          -0.42371000           0.05496000         
O                     1.02670000          -0.55956000           0.46454000         
O                    -3.09494000          -0.46614000           0.41199000         
H                     0.31712000           0.28613000          -1.25625000         
H                    -1.48506000          -1.24279000          -0.54302000         
H                     0.98195000           1.41795000          -0.06468000         
H                    -1.45781000           1.63927000          -0.00634000         
H                    -0.96095000           0.79460000           1.49315000         
H                     1.24431000          -0.27472000           1.37032000         
11
DE: 105.83226749999753  DG: 108.06114750000589
C                    -0.73562000           0.28857800           0.45259100         
C                     0.45286300           1.21640900          -0.41334800         
C                     0.87865700          -0.03926800           0.38407900         
O                    -1.43035700          -0.66385600          -0.20844000         
O                     1.22193200          -1.09125600          -0.18861700         
H                    -1.10985700           0.73474300           1.37630300         
H                     1.29505900           0.28710200           1.36260400         
H                    -0.84309100           1.34712600          -0.24684800         
H                     0.65423000           2.21841800          -0.02983200         
H                     0.43955900           1.04896400          -1.49111100         
H                    -2.34390900          -0.38977300          -0.33459100         
