10

C                     0.84078000           1.09320000          -0.60212000         
C                    -0.36699000           0.93288000           0.29944000         
C                    -1.28860000          -0.12426000          -0.24566000         
O                    -2.48657000           0.05978000          -0.43689000         
H                     0.53825000           1.38146000          -1.61442000         
H                     1.51102000           1.86434000          -0.21044000         
H                    -0.83533000          -1.11524000          -0.42013000         
H                    -0.91262000           1.87860000           0.37655000         
H                    -0.05642000           0.62835000           1.30360000         
H                     1.40288000           0.15639000          -0.67813000         
10

C                     1.12862000           1.10880000          -0.59011000         
C                     0.14155000           0.69610000           0.47816000         
C                    -3.34895000          -0.62044000          -1.24769000         
O                    -3.38590000           0.15743000          -0.53293000         
H                     0.63282000           1.18691000          -1.56229000         
H                     1.57107000           2.08013000          -0.34984000         
H                    -0.29140000          -0.28071000           0.24366000         
H                    -0.67079000           1.42516000           0.55314000         
H                     0.63460000           0.62826000           1.45237000         
H                     1.93488000           0.37387000          -0.67265000         
10
DE: 86.6721825000046  DG: 90.56393750000574
C                    -0.81521200           0.74951300           0.16448000         
C                     1.19217500           0.48556400          -0.22564100         
C                    -1.37577100          -0.62387600          -0.09839300         
O                     1.50264100          -0.57852800           0.13778800         
H                     0.58433500           1.36678800          -0.50361700         
H                    -1.54270200          -0.79391200          -1.17051000         
H                    -0.74301300           1.00701900           1.22968000         
H                    -1.31769300           1.56088700          -0.38164000         
H                    -2.33356500          -0.78792900           0.41650600         
H                    -0.67564800          -1.39183300           0.26459700         
