11

C                     0.45836000           0.18555000           0.76875000         
C                    -0.84378000           0.80793000           0.30646000         
C                    -1.47327000          -0.06801000          -0.74013000         
O                     1.43041000           0.30674000          -0.26343000         
O                    -2.60375000          -0.53483000          -0.63131000         
H                     0.83391000           0.71319000           1.65100000         
H                     0.33769000          -0.87527000           1.01122000         
H                    -0.87062000          -0.24796000          -1.64729000         
H                    -0.68003000           1.79404000          -0.13942000         
H                    -1.53974000           0.90428000           1.14573000         
H                     2.26793000          -0.04487000           0.08871000         
11

C                     1.12758000          -0.47414000           0.22434000         
C                    -2.10357000           1.47339000           0.25701000         
C                    -2.64550000           0.43453000          -0.29570000         
O                     2.32647000           0.07812000          -0.28655000         
O                    -3.12880000          -0.51415000          -0.79107000         
H                     0.76653000           0.14660000           1.04798000         
H                     1.30891000          -1.49295000           0.57487000         
H                     0.38024000          -0.49332000          -0.57185000         
H                    -1.51801000           2.16233000          -0.33710000         
H                    -2.19910000           1.63457000           1.32211000         
H                     3.00245000          -0.01437000           0.40635000         
11
DE: 86.80772249998341  DG: 90.50620750002665
C                     0.95146400          -0.66946800          -0.15422100         
C                    -0.70887400           1.35366000          -0.05953000         
C                    -0.96579600           0.03095100           0.27996600         
O                     2.03350700           0.04811300           0.09454500         
O                    -1.74343100          -0.83670200          -0.10318000         
H                     0.89011100          -1.57972300           0.43987200         
H                     0.58669600          -0.76159900          -1.17616700         
H                    -0.25203100          -0.21504500           1.16690300         
H                    -1.39883600           1.92687200          -0.68110400         
H                     0.09436000           1.87367500           0.46142200         
H                     2.09832700           0.77367900          -0.53913800         
